** sch_path: /home/amedcalf/projects/ci2406_fgcaptest/xschem/top_fgcaptest.sch
.subckt top_fgcaptest VPWR VGND addr[8] addr[7] addr[6] addr[5] addr[4] addr[3] addr[2] addr[1] addr[0]
*.PININFO VPWR:I VGND:I addr[8:0]:I
x1 vinj net1 vinj VCTRL net2 addr[8] addr[7] addr[6] addr[5] addr[4] addr[3] addr[2] addr[1] addr[0] VOUT0 VOUT1 VSRC array_core
xp1 vinj vinj net1 net3 sky130_ef_io__analog_minesd_pad_short
xp2 VOUT0 vinj net1 net4 sky130_ef_io__analog_minesd_pad_short
xp3 VSRC vinj net1 net5 sky130_ef_io__analog_minesd_pad_short
xp4 VOUT1 vinj net1 net6 sky130_ef_io__analog_minesd_pad_short
xp6 VCTRL vinj net1 net7 sky130_ef_io__analog_minesd_pad_short
.ends

* expanding   symbol:  array_core.sym # of pins=9
** sym_path: /home/amedcalf/projects/ci2406_fgcaptest/xschem/array_core.sym
** sch_path: /home/amedcalf/projects/ci2406_fgcaptest/xschem/array_core.sch
.subckt array_core vinj VGND vtun vctrl VPWR addr[8] addr[7] addr[6] addr[5] addr[4] addr[3] addr[2] addr[1] addr[0] l_vout r_vout
+ VSRC
*.PININFO vinj:I VGND:I vtun:I vctrl:I l_vout:O addr[8:0]:I VPWR:I r_vout:O VSRC:I
x1 vinj VGND VSRC VSRC VSRC VSRC VSRC VSRC VSRC VSRC VSRC VSRC l_row_en[9] l_row_en[8] l_row_en[7] l_row_en[6] l_row_en[5]
+ l_row_en[4] l_row_en[3] l_row_en[2] l_row_en[1] l_row_en[0] l_row_en_b[9] l_row_en_b[8] l_row_en_b[7] l_row_en_b[6] l_row_en_b[5]
+ l_row_en_b[4] l_row_en_b[3] l_row_en_b[2] l_row_en_b[1] l_row_en_b[0] vtun vb vctrl net3[9] net3[8] net3[7] net3[6] net3[5] net3[4] net3[3]
+ net3[2] net3[1] net3[0] array_core_block0
x2 vinj VGND VSRC VSRC VSRC VSRC VSRC VSRC VSRC VSRC VSRC VSRC l_row_en[19] l_row_en[18] l_row_en[17] l_row_en[16] l_row_en[15]
+ l_row_en[14] l_row_en[13] l_row_en[12] l_row_en[11] l_row_en[10] l_row_en_b[19] l_row_en_b[18] l_row_en_b[17] l_row_en_b[16] l_row_en_b[15]
+ l_row_en_b[14] l_row_en_b[13] l_row_en_b[12] l_row_en_b[11] l_row_en_b[10] vtun vb vctrl net3[9] net3[8] net3[7] net3[6] net3[5] net3[4] net3[3]
+ net3[2] net3[1] net3[0] array_core_block1
x3 vinj VGND VSRC VSRC VSRC VSRC VSRC VSRC VSRC VSRC VSRC VSRC l_row_en[29] l_row_en[28] l_row_en[27] l_row_en[26] l_row_en[25]
+ l_row_en[24] l_row_en[23] l_row_en[22] l_row_en[21] l_row_en[20] l_row_en_b[29] l_row_en_b[28] l_row_en_b[27] l_row_en_b[26] l_row_en_b[25]
+ l_row_en_b[24] l_row_en_b[23] l_row_en_b[22] l_row_en_b[21] l_row_en_b[20] vtun vb vctrl net3[9] net3[8] net3[7] net3[6] net3[5] net3[4] net3[3]
+ net3[2] net3[1] net3[0] array_core_block2
x6 vinj VGND VSRC VSRC VSRC VSRC VSRC VSRC VSRC VSRC VSRC VSRC r_row_en[29] r_row_en[28] r_row_en[27] r_row_en[26] r_row_en[25]
+ r_row_en[24] r_row_en[23] r_row_en[22] r_row_en[21] r_row_en[20] r_row_en_b[29] r_row_en_b[28] r_row_en_b[27] r_row_en_b[26] r_row_en_b[25]
+ r_row_en_b[24] r_row_en_b[23] r_row_en_b[22] r_row_en_b[21] r_row_en_b[20] vtun vb vctrl net4[9] net4[8] net4[7] net4[6] net4[5] net4[4] net4[3]
+ net4[2] net4[1] net4[0] array_core_block5
x7 VPWR VGND addr[8] addr[7] addr[6] addr[5] addr[4] l_w[31] l_w[30] l_w[29] l_w[28] l_w[27] l_w[26] l_w[25] l_w[24] l_w[23]
+ l_w[22] l_w[21] l_w[20] l_w[19] l_w[18] l_w[17] l_w[16] l_w[15] l_w[14] l_w[13] l_w[12] l_w[11] l_w[10] l_w[9] l_w[8] l_w[7] l_w[6]
+ l_w[5] l_w[4] l_w[3] l_w[2] l_w[1] l_w[0] array_row_decode
x8 VPWR VGND addr[8] addr[7] addr[6] addr[5] addr[4] r_w[31] r_w[30] r_w[29] r_w[28] r_w[27] r_w[26] r_w[25] r_w[24] r_w[23]
+ r_w[22] r_w[21] r_w[20] r_w[19] r_w[18] r_w[17] r_w[16] r_w[15] r_w[14] r_w[13] r_w[12] r_w[11] r_w[10] r_w[9] r_w[8] r_w[7] r_w[6]
+ r_w[5] r_w[4] r_w[3] r_w[2] r_w[1] r_w[0] array_row_decode
x9[31] l_w[31] l_row_en_b[31] l_row_en[31] VPWR vinj VGND lsi1v8o5v0
x9[30] l_w[30] l_row_en_b[30] l_row_en[30] VPWR vinj VGND lsi1v8o5v0
x9[29] l_w[29] l_row_en_b[29] l_row_en[29] VPWR vinj VGND lsi1v8o5v0
x9[28] l_w[28] l_row_en_b[28] l_row_en[28] VPWR vinj VGND lsi1v8o5v0
x9[27] l_w[27] l_row_en_b[27] l_row_en[27] VPWR vinj VGND lsi1v8o5v0
x9[26] l_w[26] l_row_en_b[26] l_row_en[26] VPWR vinj VGND lsi1v8o5v0
x9[25] l_w[25] l_row_en_b[25] l_row_en[25] VPWR vinj VGND lsi1v8o5v0
x9[24] l_w[24] l_row_en_b[24] l_row_en[24] VPWR vinj VGND lsi1v8o5v0
x9[23] l_w[23] l_row_en_b[23] l_row_en[23] VPWR vinj VGND lsi1v8o5v0
x9[22] l_w[22] l_row_en_b[22] l_row_en[22] VPWR vinj VGND lsi1v8o5v0
x9[21] l_w[21] l_row_en_b[21] l_row_en[21] VPWR vinj VGND lsi1v8o5v0
x9[20] l_w[20] l_row_en_b[20] l_row_en[20] VPWR vinj VGND lsi1v8o5v0
x9[19] l_w[19] l_row_en_b[19] l_row_en[19] VPWR vinj VGND lsi1v8o5v0
x9[18] l_w[18] l_row_en_b[18] l_row_en[18] VPWR vinj VGND lsi1v8o5v0
x9[17] l_w[17] l_row_en_b[17] l_row_en[17] VPWR vinj VGND lsi1v8o5v0
x9[16] l_w[16] l_row_en_b[16] l_row_en[16] VPWR vinj VGND lsi1v8o5v0
x9[15] l_w[15] l_row_en_b[15] l_row_en[15] VPWR vinj VGND lsi1v8o5v0
x9[14] l_w[14] l_row_en_b[14] l_row_en[14] VPWR vinj VGND lsi1v8o5v0
x9[13] l_w[13] l_row_en_b[13] l_row_en[13] VPWR vinj VGND lsi1v8o5v0
x9[12] l_w[12] l_row_en_b[12] l_row_en[12] VPWR vinj VGND lsi1v8o5v0
x9[11] l_w[11] l_row_en_b[11] l_row_en[11] VPWR vinj VGND lsi1v8o5v0
x9[10] l_w[10] l_row_en_b[10] l_row_en[10] VPWR vinj VGND lsi1v8o5v0
x9[9] l_w[9] l_row_en_b[9] l_row_en[9] VPWR vinj VGND lsi1v8o5v0
x9[8] l_w[8] l_row_en_b[8] l_row_en[8] VPWR vinj VGND lsi1v8o5v0
x9[7] l_w[7] l_row_en_b[7] l_row_en[7] VPWR vinj VGND lsi1v8o5v0
x9[6] l_w[6] l_row_en_b[6] l_row_en[6] VPWR vinj VGND lsi1v8o5v0
x9[5] l_w[5] l_row_en_b[5] l_row_en[5] VPWR vinj VGND lsi1v8o5v0
x9[4] l_w[4] l_row_en_b[4] l_row_en[4] VPWR vinj VGND lsi1v8o5v0
x9[3] l_w[3] l_row_en_b[3] l_row_en[3] VPWR vinj VGND lsi1v8o5v0
x9[2] l_w[2] l_row_en_b[2] l_row_en[2] VPWR vinj VGND lsi1v8o5v0
x9[1] l_w[1] l_row_en_b[1] l_row_en[1] VPWR vinj VGND lsi1v8o5v0
x9[0] l_w[0] l_row_en_b[0] l_row_en[0] VPWR vinj VGND lsi1v8o5v0
x10[31] r_w[31] r_row_en_b[31] r_row_en[31] VPWR vinj VGND lsi1v8o5v0
x10[30] r_w[30] r_row_en_b[30] r_row_en[30] VPWR vinj VGND lsi1v8o5v0
x10[29] r_w[29] r_row_en_b[29] r_row_en[29] VPWR vinj VGND lsi1v8o5v0
x10[28] r_w[28] r_row_en_b[28] r_row_en[28] VPWR vinj VGND lsi1v8o5v0
x10[27] r_w[27] r_row_en_b[27] r_row_en[27] VPWR vinj VGND lsi1v8o5v0
x10[26] r_w[26] r_row_en_b[26] r_row_en[26] VPWR vinj VGND lsi1v8o5v0
x10[25] r_w[25] r_row_en_b[25] r_row_en[25] VPWR vinj VGND lsi1v8o5v0
x10[24] r_w[24] r_row_en_b[24] r_row_en[24] VPWR vinj VGND lsi1v8o5v0
x10[23] r_w[23] r_row_en_b[23] r_row_en[23] VPWR vinj VGND lsi1v8o5v0
x10[22] r_w[22] r_row_en_b[22] r_row_en[22] VPWR vinj VGND lsi1v8o5v0
x10[21] r_w[21] r_row_en_b[21] r_row_en[21] VPWR vinj VGND lsi1v8o5v0
x10[20] r_w[20] r_row_en_b[20] r_row_en[20] VPWR vinj VGND lsi1v8o5v0
x10[19] r_w[19] r_row_en_b[19] r_row_en[19] VPWR vinj VGND lsi1v8o5v0
x10[18] r_w[18] r_row_en_b[18] r_row_en[18] VPWR vinj VGND lsi1v8o5v0
x10[17] r_w[17] r_row_en_b[17] r_row_en[17] VPWR vinj VGND lsi1v8o5v0
x10[16] r_w[16] r_row_en_b[16] r_row_en[16] VPWR vinj VGND lsi1v8o5v0
x10[15] r_w[15] r_row_en_b[15] r_row_en[15] VPWR vinj VGND lsi1v8o5v0
x10[14] r_w[14] r_row_en_b[14] r_row_en[14] VPWR vinj VGND lsi1v8o5v0
x10[13] r_w[13] r_row_en_b[13] r_row_en[13] VPWR vinj VGND lsi1v8o5v0
x10[12] r_w[12] r_row_en_b[12] r_row_en[12] VPWR vinj VGND lsi1v8o5v0
x10[11] r_w[11] r_row_en_b[11] r_row_en[11] VPWR vinj VGND lsi1v8o5v0
x10[10] r_w[10] r_row_en_b[10] r_row_en[10] VPWR vinj VGND lsi1v8o5v0
x10[9] r_w[9] r_row_en_b[9] r_row_en[9] VPWR vinj VGND lsi1v8o5v0
x10[8] r_w[8] r_row_en_b[8] r_row_en[8] VPWR vinj VGND lsi1v8o5v0
x10[7] r_w[7] r_row_en_b[7] r_row_en[7] VPWR vinj VGND lsi1v8o5v0
x10[6] r_w[6] r_row_en_b[6] r_row_en[6] VPWR vinj VGND lsi1v8o5v0
x10[5] r_w[5] r_row_en_b[5] r_row_en[5] VPWR vinj VGND lsi1v8o5v0
x10[4] r_w[4] r_row_en_b[4] r_row_en[4] VPWR vinj VGND lsi1v8o5v0
x10[3] r_w[3] r_row_en_b[3] r_row_en[3] VPWR vinj VGND lsi1v8o5v0
x10[2] r_w[2] r_row_en_b[2] r_row_en[2] VPWR vinj VGND lsi1v8o5v0
x10[1] r_w[1] r_row_en_b[1] r_row_en[1] VPWR vinj VGND lsi1v8o5v0
x10[0] r_w[0] r_row_en_b[0] r_row_en[0] VPWR vinj VGND lsi1v8o5v0
* tap: l_row_en[31:0] --> l_row_en[29:20]
* tap: l_row_en[31:0] --> l_row_en[19:10]
* tap: l_row_en[31:0] --> l_row_en[9:0]
* tap: l_row_en_b[31:0] --> l_row_en_b[29:20]
* tap: l_row_en_b[31:0] --> l_row_en_b[19:10]
* tap: l_row_en_b[31:0] --> l_row_en_b[9:0]
* tap: r_row_en[31:0] --> r_row_en[29:20]
* tap: r_row_en[31:0] --> r_row_en[19:10]
* tap: r_row_en[31:0] --> r_row_en[9:0]
* tap: r_row_en_b[31:0] --> r_row_en_b[29:20]
* tap: r_row_en_b[31:0] --> r_row_en_b[19:10]
* tap: r_row_en_b[31:0] --> r_row_en_b[9:0]
x1[9] net3[9] l_vout net1[9] net2[9] vinj VGND tg5v0
x1[8] net3[8] l_vout net1[8] net2[8] vinj VGND tg5v0
x1[7] net3[7] l_vout net1[7] net2[7] vinj VGND tg5v0
x1[6] net3[6] l_vout net1[6] net2[6] vinj VGND tg5v0
x1[5] net3[5] l_vout net1[5] net2[5] vinj VGND tg5v0
x1[4] net3[4] l_vout net1[4] net2[4] vinj VGND tg5v0
x1[3] net3[3] l_vout net1[3] net2[3] vinj VGND tg5v0
x1[2] net3[2] l_vout net1[2] net2[2] vinj VGND tg5v0
x1[1] net3[1] l_vout net1[1] net2[1] vinj VGND tg5v0
x1[0] net3[0] l_vout net1[0] net2[0] vinj VGND tg5v0
x11[15] c[15] net2[9] net1[9] VPWR vinj VGND lsi1v8o5v0
x11[14] c[14] net2[8] net1[8] VPWR vinj VGND lsi1v8o5v0
x11[13] c[13] net2[7] net1[7] VPWR vinj VGND lsi1v8o5v0
x11[12] c[12] net2[6] net1[6] VPWR vinj VGND lsi1v8o5v0
x11[11] c[11] net2[5] net1[5] VPWR vinj VGND lsi1v8o5v0
x11[10] c[10] net2[4] net1[4] VPWR vinj VGND lsi1v8o5v0
x11[9] c[9] net2[3] net1[3] VPWR vinj VGND lsi1v8o5v0
x11[8] c[8] net2[2] net1[2] VPWR vinj VGND lsi1v8o5v0
x11[7] c[7] net2[1] net1[1] VPWR vinj VGND lsi1v8o5v0
x11[6] c[6] net2[0] net1[0] VPWR vinj VGND lsi1v8o5v0
x11[5] c[5] net2[9] net1[9] VPWR vinj VGND lsi1v8o5v0
x11[4] c[4] net2[8] net1[8] VPWR vinj VGND lsi1v8o5v0
x11[3] c[3] net2[7] net1[7] VPWR vinj VGND lsi1v8o5v0
x11[2] c[2] net2[6] net1[6] VPWR vinj VGND lsi1v8o5v0
x11[1] c[1] net2[5] net1[5] VPWR vinj VGND lsi1v8o5v0
x11[0] c[0] net2[4] net1[4] VPWR vinj VGND lsi1v8o5v0
* tap: addr[8:0] --> addr[8:4]
* tap: addr[8:0] --> addr[3:0]
* tap: addr[8:0] --> addr[8:4]
x10 VPWR VGND addr[3] addr[2] addr[1] addr[0] c[15] c[14] c[13] c[12] c[11] c[10] c[9] c[8] c[7] c[6] c[5] c[4] c[3] c[2] c[1]
+ c[0] array_column_decode
x2[9] net4[9] r_vout net1[9] net2[9] vinj VGND tg5v0
x2[8] net4[8] r_vout net1[8] net2[8] vinj VGND tg5v0
x2[7] net4[7] r_vout net1[7] net2[7] vinj VGND tg5v0
x2[6] net4[6] r_vout net1[6] net2[6] vinj VGND tg5v0
x2[5] net4[5] r_vout net1[5] net2[5] vinj VGND tg5v0
x2[4] net4[4] r_vout net1[4] net2[4] vinj VGND tg5v0
x2[3] net4[3] r_vout net1[3] net2[3] vinj VGND tg5v0
x2[2] net4[2] r_vout net1[2] net2[2] vinj VGND tg5v0
x2[1] net4[1] r_vout net1[1] net2[1] vinj VGND tg5v0
x2[0] net4[0] r_vout net1[0] net2[0] vinj VGND tg5v0
x9 vinj VGND vb vb_divider
XC1 vb VGND VGND sky130_fd_pr__cap_vpp_11p5x11p7_m1m2_noshield m=1
XC2 vb VGND VGND sky130_fd_pr__cap_vpp_11p5x11p7_m1m2_noshield m=1
.ends


* expanding   symbol:  array_core_block0.sym # of pins=9
** sym_path: /home/amedcalf/projects/ci2406_fgcaptest/xschem/array_core_block0.sym
** sch_path: /home/amedcalf/projects/ci2406_fgcaptest/xschem/array_core_block0.sch
.subckt array_core_block0 vinj VGND vsrc[9] vsrc[8] vsrc[7] vsrc[6] vsrc[5] vsrc[4] vsrc[3] vsrc[2] vsrc[1] vsrc[0] row_en_6v0[9]
+ row_en_6v0[8] row_en_6v0[7] row_en_6v0[6] row_en_6v0[5] row_en_6v0[4] row_en_6v0[3] row_en_6v0[2] row_en_6v0[1] row_en_6v0[0] row_en_6v0_b[9]
+ row_en_6v0_b[8] row_en_6v0_b[7] row_en_6v0_b[6] row_en_6v0_b[5] row_en_6v0_b[4] row_en_6v0_b[3] row_en_6v0_b[2] row_en_6v0_b[1] row_en_6v0_b[0]
+ vtun vb vctrl vout[9] vout[8] vout[7] vout[6] vout[5] vout[4] vout[3] vout[2] vout[1] vout[0]
*.PININFO vtun:I vinj:I VGND:I vb:I row_en_6v0[9:0]:I row_en_6v0_b[9:0]:I vctrl:I vsrc[9:0]:I vout[9:0]:O
xc0[9] vb row_en_6v0[9] vinj vout[0] row_en_6v0_b[9] vtun vctrl vsrc[0] VGND net1[9] fgcell_amp
xc0[8] vb row_en_6v0[8] vinj vout[0] row_en_6v0_b[8] vtun vctrl vsrc[0] VGND net1[8] fgcell_amp
xc0[7] vb row_en_6v0[7] vinj vout[0] row_en_6v0_b[7] vtun vctrl vsrc[0] VGND net1[7] fgcell_amp
xc0[6] vb row_en_6v0[6] vinj vout[0] row_en_6v0_b[6] vtun vctrl vsrc[0] VGND net1[6] fgcell_amp
xc0[5] vb row_en_6v0[5] vinj vout[0] row_en_6v0_b[5] vtun vctrl vsrc[0] VGND net1[5] fgcell_amp
xc0[4] vb row_en_6v0[4] vinj vout[0] row_en_6v0_b[4] vtun vctrl vsrc[0] VGND net1[4] fgcell_amp
xc0[3] vb row_en_6v0[3] vinj vout[0] row_en_6v0_b[3] vtun vctrl vsrc[0] VGND net1[3] fgcell_amp
xc0[2] vb row_en_6v0[2] vinj vout[0] row_en_6v0_b[2] vtun vctrl vsrc[0] VGND net1[2] fgcell_amp
xc0[1] vb row_en_6v0[1] vinj vout[0] row_en_6v0_b[1] vtun vctrl vsrc[0] VGND net1[1] fgcell_amp
xc0[0] vb row_en_6v0[0] vinj vout[0] row_en_6v0_b[0] vtun vctrl vsrc[0] VGND net1[0] fgcell_amp
xc1[9] vb row_en_6v0[9] vinj vout[1] row_en_6v0_b[9] vtun vctrl vsrc[1] VGND net2[9] fgcell_amp
xc1[8] vb row_en_6v0[8] vinj vout[1] row_en_6v0_b[8] vtun vctrl vsrc[1] VGND net2[8] fgcell_amp
xc1[7] vb row_en_6v0[7] vinj vout[1] row_en_6v0_b[7] vtun vctrl vsrc[1] VGND net2[7] fgcell_amp
xc1[6] vb row_en_6v0[6] vinj vout[1] row_en_6v0_b[6] vtun vctrl vsrc[1] VGND net2[6] fgcell_amp
xc1[5] vb row_en_6v0[5] vinj vout[1] row_en_6v0_b[5] vtun vctrl vsrc[1] VGND net2[5] fgcell_amp
xc1[4] vb row_en_6v0[4] vinj vout[1] row_en_6v0_b[4] vtun vctrl vsrc[1] VGND net2[4] fgcell_amp
xc1[3] vb row_en_6v0[3] vinj vout[1] row_en_6v0_b[3] vtun vctrl vsrc[1] VGND net2[3] fgcell_amp
xc1[2] vb row_en_6v0[2] vinj vout[1] row_en_6v0_b[2] vtun vctrl vsrc[1] VGND net2[2] fgcell_amp
xc1[1] vb row_en_6v0[1] vinj vout[1] row_en_6v0_b[1] vtun vctrl vsrc[1] VGND net2[1] fgcell_amp
xc1[0] vb row_en_6v0[0] vinj vout[1] row_en_6v0_b[0] vtun vctrl vsrc[1] VGND net2[0] fgcell_amp
xc2[9] vb row_en_6v0[9] vinj vout[2] row_en_6v0_b[9] vtun vctrl vsrc[2] VGND net3[9] fgcell_amp
xc2[8] vb row_en_6v0[8] vinj vout[2] row_en_6v0_b[8] vtun vctrl vsrc[2] VGND net3[8] fgcell_amp
xc2[7] vb row_en_6v0[7] vinj vout[2] row_en_6v0_b[7] vtun vctrl vsrc[2] VGND net3[7] fgcell_amp
xc2[6] vb row_en_6v0[6] vinj vout[2] row_en_6v0_b[6] vtun vctrl vsrc[2] VGND net3[6] fgcell_amp
xc2[5] vb row_en_6v0[5] vinj vout[2] row_en_6v0_b[5] vtun vctrl vsrc[2] VGND net3[5] fgcell_amp
xc2[4] vb row_en_6v0[4] vinj vout[2] row_en_6v0_b[4] vtun vctrl vsrc[2] VGND net3[4] fgcell_amp
xc2[3] vb row_en_6v0[3] vinj vout[2] row_en_6v0_b[3] vtun vctrl vsrc[2] VGND net3[3] fgcell_amp
xc2[2] vb row_en_6v0[2] vinj vout[2] row_en_6v0_b[2] vtun vctrl vsrc[2] VGND net3[2] fgcell_amp
xc2[1] vb row_en_6v0[1] vinj vout[2] row_en_6v0_b[1] vtun vctrl vsrc[2] VGND net3[1] fgcell_amp
xc2[0] vb row_en_6v0[0] vinj vout[2] row_en_6v0_b[0] vtun vctrl vsrc[2] VGND net3[0] fgcell_amp
xc3[9] vb row_en_6v0[9] vinj vout[3] row_en_6v0_b[9] vtun vctrl vsrc[3] VGND net4[9] fgcell_amp
xc3[8] vb row_en_6v0[8] vinj vout[3] row_en_6v0_b[8] vtun vctrl vsrc[3] VGND net4[8] fgcell_amp
xc3[7] vb row_en_6v0[7] vinj vout[3] row_en_6v0_b[7] vtun vctrl vsrc[3] VGND net4[7] fgcell_amp
xc3[6] vb row_en_6v0[6] vinj vout[3] row_en_6v0_b[6] vtun vctrl vsrc[3] VGND net4[6] fgcell_amp
xc3[5] vb row_en_6v0[5] vinj vout[3] row_en_6v0_b[5] vtun vctrl vsrc[3] VGND net4[5] fgcell_amp
xc3[4] vb row_en_6v0[4] vinj vout[3] row_en_6v0_b[4] vtun vctrl vsrc[3] VGND net4[4] fgcell_amp
xc3[3] vb row_en_6v0[3] vinj vout[3] row_en_6v0_b[3] vtun vctrl vsrc[3] VGND net4[3] fgcell_amp
xc3[2] vb row_en_6v0[2] vinj vout[3] row_en_6v0_b[2] vtun vctrl vsrc[3] VGND net4[2] fgcell_amp
xc3[1] vb row_en_6v0[1] vinj vout[3] row_en_6v0_b[1] vtun vctrl vsrc[3] VGND net4[1] fgcell_amp
xc3[0] vb row_en_6v0[0] vinj vout[3] row_en_6v0_b[0] vtun vctrl vsrc[3] VGND net4[0] fgcell_amp
xc4[9] vb row_en_6v0[9] vinj vout[4] row_en_6v0_b[9] vtun vctrl vsrc[4] VGND net5[9] fgcell_amp
xc4[8] vb row_en_6v0[8] vinj vout[4] row_en_6v0_b[8] vtun vctrl vsrc[4] VGND net5[8] fgcell_amp
xc4[7] vb row_en_6v0[7] vinj vout[4] row_en_6v0_b[7] vtun vctrl vsrc[4] VGND net5[7] fgcell_amp
xc4[6] vb row_en_6v0[6] vinj vout[4] row_en_6v0_b[6] vtun vctrl vsrc[4] VGND net5[6] fgcell_amp
xc4[5] vb row_en_6v0[5] vinj vout[4] row_en_6v0_b[5] vtun vctrl vsrc[4] VGND net5[5] fgcell_amp
xc4[4] vb row_en_6v0[4] vinj vout[4] row_en_6v0_b[4] vtun vctrl vsrc[4] VGND net5[4] fgcell_amp
xc4[3] vb row_en_6v0[3] vinj vout[4] row_en_6v0_b[3] vtun vctrl vsrc[4] VGND net5[3] fgcell_amp
xc4[2] vb row_en_6v0[2] vinj vout[4] row_en_6v0_b[2] vtun vctrl vsrc[4] VGND net5[2] fgcell_amp
xc4[1] vb row_en_6v0[1] vinj vout[4] row_en_6v0_b[1] vtun vctrl vsrc[4] VGND net5[1] fgcell_amp
xc4[0] vb row_en_6v0[0] vinj vout[4] row_en_6v0_b[0] vtun vctrl vsrc[4] VGND net5[0] fgcell_amp
xc5[9] vb row_en_6v0[9] vinj vout[5] row_en_6v0_b[9] vtun vctrl vsrc[5] VGND net6[9] fgcell_amp
xc5[8] vb row_en_6v0[8] vinj vout[5] row_en_6v0_b[8] vtun vctrl vsrc[5] VGND net6[8] fgcell_amp
xc5[7] vb row_en_6v0[7] vinj vout[5] row_en_6v0_b[7] vtun vctrl vsrc[5] VGND net6[7] fgcell_amp
xc5[6] vb row_en_6v0[6] vinj vout[5] row_en_6v0_b[6] vtun vctrl vsrc[5] VGND net6[6] fgcell_amp
xc5[5] vb row_en_6v0[5] vinj vout[5] row_en_6v0_b[5] vtun vctrl vsrc[5] VGND net6[5] fgcell_amp
xc5[4] vb row_en_6v0[4] vinj vout[5] row_en_6v0_b[4] vtun vctrl vsrc[5] VGND net6[4] fgcell_amp
xc5[3] vb row_en_6v0[3] vinj vout[5] row_en_6v0_b[3] vtun vctrl vsrc[5] VGND net6[3] fgcell_amp
xc5[2] vb row_en_6v0[2] vinj vout[5] row_en_6v0_b[2] vtun vctrl vsrc[5] VGND net6[2] fgcell_amp
xc5[1] vb row_en_6v0[1] vinj vout[5] row_en_6v0_b[1] vtun vctrl vsrc[5] VGND net6[1] fgcell_amp
xc5[0] vb row_en_6v0[0] vinj vout[5] row_en_6v0_b[0] vtun vctrl vsrc[5] VGND net6[0] fgcell_amp
xc6[9] vb row_en_6v0[9] vinj vout[6] row_en_6v0_b[9] vtun vctrl vsrc[6] VGND net7[9] fgcell_amp
xc6[8] vb row_en_6v0[8] vinj vout[6] row_en_6v0_b[8] vtun vctrl vsrc[6] VGND net7[8] fgcell_amp
xc6[7] vb row_en_6v0[7] vinj vout[6] row_en_6v0_b[7] vtun vctrl vsrc[6] VGND net7[7] fgcell_amp
xc6[6] vb row_en_6v0[6] vinj vout[6] row_en_6v0_b[6] vtun vctrl vsrc[6] VGND net7[6] fgcell_amp
xc6[5] vb row_en_6v0[5] vinj vout[6] row_en_6v0_b[5] vtun vctrl vsrc[6] VGND net7[5] fgcell_amp
xc6[4] vb row_en_6v0[4] vinj vout[6] row_en_6v0_b[4] vtun vctrl vsrc[6] VGND net7[4] fgcell_amp
xc6[3] vb row_en_6v0[3] vinj vout[6] row_en_6v0_b[3] vtun vctrl vsrc[6] VGND net7[3] fgcell_amp
xc6[2] vb row_en_6v0[2] vinj vout[6] row_en_6v0_b[2] vtun vctrl vsrc[6] VGND net7[2] fgcell_amp
xc6[1] vb row_en_6v0[1] vinj vout[6] row_en_6v0_b[1] vtun vctrl vsrc[6] VGND net7[1] fgcell_amp
xc6[0] vb row_en_6v0[0] vinj vout[6] row_en_6v0_b[0] vtun vctrl vsrc[6] VGND net7[0] fgcell_amp
xc7[9] vb row_en_6v0[9] vinj vout[7] row_en_6v0_b[9] vtun vctrl vsrc[7] VGND net8[9] fgcell_amp
xc7[8] vb row_en_6v0[8] vinj vout[7] row_en_6v0_b[8] vtun vctrl vsrc[7] VGND net8[8] fgcell_amp
xc7[7] vb row_en_6v0[7] vinj vout[7] row_en_6v0_b[7] vtun vctrl vsrc[7] VGND net8[7] fgcell_amp
xc7[6] vb row_en_6v0[6] vinj vout[7] row_en_6v0_b[6] vtun vctrl vsrc[7] VGND net8[6] fgcell_amp
xc7[5] vb row_en_6v0[5] vinj vout[7] row_en_6v0_b[5] vtun vctrl vsrc[7] VGND net8[5] fgcell_amp
xc7[4] vb row_en_6v0[4] vinj vout[7] row_en_6v0_b[4] vtun vctrl vsrc[7] VGND net8[4] fgcell_amp
xc7[3] vb row_en_6v0[3] vinj vout[7] row_en_6v0_b[3] vtun vctrl vsrc[7] VGND net8[3] fgcell_amp
xc7[2] vb row_en_6v0[2] vinj vout[7] row_en_6v0_b[2] vtun vctrl vsrc[7] VGND net8[2] fgcell_amp
xc7[1] vb row_en_6v0[1] vinj vout[7] row_en_6v0_b[1] vtun vctrl vsrc[7] VGND net8[1] fgcell_amp
xc7[0] vb row_en_6v0[0] vinj vout[7] row_en_6v0_b[0] vtun vctrl vsrc[7] VGND net8[0] fgcell_amp
xc8[9] vb row_en_6v0[9] vinj vout[8] row_en_6v0_b[9] vtun vctrl vsrc[8] VGND net9[9] fgcell_amp
xc8[8] vb row_en_6v0[8] vinj vout[8] row_en_6v0_b[8] vtun vctrl vsrc[8] VGND net9[8] fgcell_amp
xc8[7] vb row_en_6v0[7] vinj vout[8] row_en_6v0_b[7] vtun vctrl vsrc[8] VGND net9[7] fgcell_amp
xc8[6] vb row_en_6v0[6] vinj vout[8] row_en_6v0_b[6] vtun vctrl vsrc[8] VGND net9[6] fgcell_amp
xc8[5] vb row_en_6v0[5] vinj vout[8] row_en_6v0_b[5] vtun vctrl vsrc[8] VGND net9[5] fgcell_amp
xc8[4] vb row_en_6v0[4] vinj vout[8] row_en_6v0_b[4] vtun vctrl vsrc[8] VGND net9[4] fgcell_amp
xc8[3] vb row_en_6v0[3] vinj vout[8] row_en_6v0_b[3] vtun vctrl vsrc[8] VGND net9[3] fgcell_amp
xc8[2] vb row_en_6v0[2] vinj vout[8] row_en_6v0_b[2] vtun vctrl vsrc[8] VGND net9[2] fgcell_amp
xc8[1] vb row_en_6v0[1] vinj vout[8] row_en_6v0_b[1] vtun vctrl vsrc[8] VGND net9[1] fgcell_amp
xc8[0] vb row_en_6v0[0] vinj vout[8] row_en_6v0_b[0] vtun vctrl vsrc[8] VGND net9[0] fgcell_amp
xc9[9] vb row_en_6v0[9] vinj vout[9] row_en_6v0_b[9] vtun vctrl vsrc[9] VGND net10[9] fgcell_amp
xc9[8] vb row_en_6v0[8] vinj vout[9] row_en_6v0_b[8] vtun vctrl vsrc[9] VGND net10[8] fgcell_amp
xc9[7] vb row_en_6v0[7] vinj vout[9] row_en_6v0_b[7] vtun vctrl vsrc[9] VGND net10[7] fgcell_amp
xc9[6] vb row_en_6v0[6] vinj vout[9] row_en_6v0_b[6] vtun vctrl vsrc[9] VGND net10[6] fgcell_amp
xc9[5] vb row_en_6v0[5] vinj vout[9] row_en_6v0_b[5] vtun vctrl vsrc[9] VGND net10[5] fgcell_amp
xc9[4] vb row_en_6v0[4] vinj vout[9] row_en_6v0_b[4] vtun vctrl vsrc[9] VGND net10[4] fgcell_amp
xc9[3] vb row_en_6v0[3] vinj vout[9] row_en_6v0_b[3] vtun vctrl vsrc[9] VGND net10[3] fgcell_amp
xc9[2] vb row_en_6v0[2] vinj vout[9] row_en_6v0_b[2] vtun vctrl vsrc[9] VGND net10[2] fgcell_amp
xc9[1] vb row_en_6v0[1] vinj vout[9] row_en_6v0_b[1] vtun vctrl vsrc[9] VGND net10[1] fgcell_amp
xc9[0] vb row_en_6v0[0] vinj vout[9] row_en_6v0_b[0] vtun vctrl vsrc[9] VGND net10[0] fgcell_amp
XC1[9] net1[9] VGND sky130_fd_pr__cap_mim_m3_1 W=1 L=1 m=1
XC1[8] net1[8] VGND sky130_fd_pr__cap_mim_m3_1 W=1 L=1 m=1
XC1[7] net1[7] VGND sky130_fd_pr__cap_mim_m3_1 W=1 L=1 m=1
XC1[6] net1[6] VGND sky130_fd_pr__cap_mim_m3_1 W=1 L=1 m=1
XC1[5] net1[5] VGND sky130_fd_pr__cap_mim_m3_1 W=1 L=1 m=1
XC1[4] net1[4] VGND sky130_fd_pr__cap_mim_m3_1 W=1 L=1 m=1
XC1[3] net1[3] VGND sky130_fd_pr__cap_mim_m3_1 W=1 L=1 m=1
XC1[2] net1[2] VGND sky130_fd_pr__cap_mim_m3_1 W=1 L=1 m=1
XC1[1] net1[1] VGND sky130_fd_pr__cap_mim_m3_1 W=1 L=1 m=1
XC1[0] net1[0] VGND sky130_fd_pr__cap_mim_m3_1 W=1 L=1 m=1
XC2[9] net2[9] VGND sky130_fd_pr__cap_mim_m3_1 W=1 L=1 m=1
XC2[8] net2[8] VGND sky130_fd_pr__cap_mim_m3_1 W=1 L=1 m=1
XC2[7] net2[7] VGND sky130_fd_pr__cap_mim_m3_1 W=1 L=1 m=1
XC2[6] net2[6] VGND sky130_fd_pr__cap_mim_m3_1 W=1 L=1 m=1
XC2[5] net2[5] VGND sky130_fd_pr__cap_mim_m3_1 W=1 L=1 m=1
XC2[4] net2[4] VGND sky130_fd_pr__cap_mim_m3_1 W=1 L=1 m=1
XC2[3] net2[3] VGND sky130_fd_pr__cap_mim_m3_1 W=1 L=1 m=1
XC2[2] net2[2] VGND sky130_fd_pr__cap_mim_m3_1 W=1 L=1 m=1
XC2[1] net2[1] VGND sky130_fd_pr__cap_mim_m3_1 W=1 L=1 m=1
XC2[0] net2[0] VGND sky130_fd_pr__cap_mim_m3_1 W=1 L=1 m=1
XC3[9] net3[9] VGND sky130_fd_pr__cap_mim_m3_1 W=1 L=1 m=1
XC3[8] net3[8] VGND sky130_fd_pr__cap_mim_m3_1 W=1 L=1 m=1
XC3[7] net3[7] VGND sky130_fd_pr__cap_mim_m3_1 W=1 L=1 m=1
XC3[6] net3[6] VGND sky130_fd_pr__cap_mim_m3_1 W=1 L=1 m=1
XC3[5] net3[5] VGND sky130_fd_pr__cap_mim_m3_1 W=1 L=1 m=1
XC3[4] net3[4] VGND sky130_fd_pr__cap_mim_m3_1 W=1 L=1 m=1
XC3[3] net3[3] VGND sky130_fd_pr__cap_mim_m3_1 W=1 L=1 m=1
XC3[2] net3[2] VGND sky130_fd_pr__cap_mim_m3_1 W=1 L=1 m=1
XC3[1] net3[1] VGND sky130_fd_pr__cap_mim_m3_1 W=1 L=1 m=1
XC3[0] net3[0] VGND sky130_fd_pr__cap_mim_m3_1 W=1 L=1 m=1
XC4[9] net4[9] VGND sky130_fd_pr__cap_mim_m3_1 W=1 L=1 m=1
XC4[8] net4[8] VGND sky130_fd_pr__cap_mim_m3_1 W=1 L=1 m=1
XC4[7] net4[7] VGND sky130_fd_pr__cap_mim_m3_1 W=1 L=1 m=1
XC4[6] net4[6] VGND sky130_fd_pr__cap_mim_m3_1 W=1 L=1 m=1
XC4[5] net4[5] VGND sky130_fd_pr__cap_mim_m3_1 W=1 L=1 m=1
XC4[4] net4[4] VGND sky130_fd_pr__cap_mim_m3_1 W=1 L=1 m=1
XC4[3] net4[3] VGND sky130_fd_pr__cap_mim_m3_1 W=1 L=1 m=1
XC4[2] net4[2] VGND sky130_fd_pr__cap_mim_m3_1 W=1 L=1 m=1
XC4[1] net4[1] VGND sky130_fd_pr__cap_mim_m3_1 W=1 L=1 m=1
XC4[0] net4[0] VGND sky130_fd_pr__cap_mim_m3_1 W=1 L=1 m=1
XC5[9] net5[9] VGND sky130_fd_pr__cap_mim_m3_1 W=1 L=1 m=1
XC5[8] net5[8] VGND sky130_fd_pr__cap_mim_m3_1 W=1 L=1 m=1
XC5[7] net5[7] VGND sky130_fd_pr__cap_mim_m3_1 W=1 L=1 m=1
XC5[6] net5[6] VGND sky130_fd_pr__cap_mim_m3_1 W=1 L=1 m=1
XC5[5] net5[5] VGND sky130_fd_pr__cap_mim_m3_1 W=1 L=1 m=1
XC5[4] net5[4] VGND sky130_fd_pr__cap_mim_m3_1 W=1 L=1 m=1
XC5[3] net5[3] VGND sky130_fd_pr__cap_mim_m3_1 W=1 L=1 m=1
XC5[2] net5[2] VGND sky130_fd_pr__cap_mim_m3_1 W=1 L=1 m=1
XC5[1] net5[1] VGND sky130_fd_pr__cap_mim_m3_1 W=1 L=1 m=1
XC5[0] net5[0] VGND sky130_fd_pr__cap_mim_m3_1 W=1 L=1 m=1
XC6[9] net6[9] VGND sky130_fd_pr__cap_mim_m3_1 W=1 L=1 m=1
XC6[8] net6[8] VGND sky130_fd_pr__cap_mim_m3_1 W=1 L=1 m=1
XC6[7] net6[7] VGND sky130_fd_pr__cap_mim_m3_1 W=1 L=1 m=1
XC6[6] net6[6] VGND sky130_fd_pr__cap_mim_m3_1 W=1 L=1 m=1
XC6[5] net6[5] VGND sky130_fd_pr__cap_mim_m3_1 W=1 L=1 m=1
XC6[4] net6[4] VGND sky130_fd_pr__cap_mim_m3_1 W=1 L=1 m=1
XC6[3] net6[3] VGND sky130_fd_pr__cap_mim_m3_1 W=1 L=1 m=1
XC6[2] net6[2] VGND sky130_fd_pr__cap_mim_m3_1 W=1 L=1 m=1
XC6[1] net6[1] VGND sky130_fd_pr__cap_mim_m3_1 W=1 L=1 m=1
XC6[0] net6[0] VGND sky130_fd_pr__cap_mim_m3_1 W=1 L=1 m=1
XC7[9] net7[9] VGND sky130_fd_pr__cap_mim_m3_1 W=1 L=1 m=1
XC7[8] net7[8] VGND sky130_fd_pr__cap_mim_m3_1 W=1 L=1 m=1
XC7[7] net7[7] VGND sky130_fd_pr__cap_mim_m3_1 W=1 L=1 m=1
XC7[6] net7[6] VGND sky130_fd_pr__cap_mim_m3_1 W=1 L=1 m=1
XC7[5] net7[5] VGND sky130_fd_pr__cap_mim_m3_1 W=1 L=1 m=1
XC7[4] net7[4] VGND sky130_fd_pr__cap_mim_m3_1 W=1 L=1 m=1
XC7[3] net7[3] VGND sky130_fd_pr__cap_mim_m3_1 W=1 L=1 m=1
XC7[2] net7[2] VGND sky130_fd_pr__cap_mim_m3_1 W=1 L=1 m=1
XC7[1] net7[1] VGND sky130_fd_pr__cap_mim_m3_1 W=1 L=1 m=1
XC7[0] net7[0] VGND sky130_fd_pr__cap_mim_m3_1 W=1 L=1 m=1
XC8[9] net8[9] VGND sky130_fd_pr__cap_mim_m3_1 W=1 L=1 m=1
XC8[8] net8[8] VGND sky130_fd_pr__cap_mim_m3_1 W=1 L=1 m=1
XC8[7] net8[7] VGND sky130_fd_pr__cap_mim_m3_1 W=1 L=1 m=1
XC8[6] net8[6] VGND sky130_fd_pr__cap_mim_m3_1 W=1 L=1 m=1
XC8[5] net8[5] VGND sky130_fd_pr__cap_mim_m3_1 W=1 L=1 m=1
XC8[4] net8[4] VGND sky130_fd_pr__cap_mim_m3_1 W=1 L=1 m=1
XC8[3] net8[3] VGND sky130_fd_pr__cap_mim_m3_1 W=1 L=1 m=1
XC8[2] net8[2] VGND sky130_fd_pr__cap_mim_m3_1 W=1 L=1 m=1
XC8[1] net8[1] VGND sky130_fd_pr__cap_mim_m3_1 W=1 L=1 m=1
XC8[0] net8[0] VGND sky130_fd_pr__cap_mim_m3_1 W=1 L=1 m=1
XC9[9] net9[9] VGND sky130_fd_pr__cap_mim_m3_1 W=1 L=1 m=1
XC9[8] net9[8] VGND sky130_fd_pr__cap_mim_m3_1 W=1 L=1 m=1
XC9[7] net9[7] VGND sky130_fd_pr__cap_mim_m3_1 W=1 L=1 m=1
XC9[6] net9[6] VGND sky130_fd_pr__cap_mim_m3_1 W=1 L=1 m=1
XC9[5] net9[5] VGND sky130_fd_pr__cap_mim_m3_1 W=1 L=1 m=1
XC9[4] net9[4] VGND sky130_fd_pr__cap_mim_m3_1 W=1 L=1 m=1
XC9[3] net9[3] VGND sky130_fd_pr__cap_mim_m3_1 W=1 L=1 m=1
XC9[2] net9[2] VGND sky130_fd_pr__cap_mim_m3_1 W=1 L=1 m=1
XC9[1] net9[1] VGND sky130_fd_pr__cap_mim_m3_1 W=1 L=1 m=1
XC9[0] net9[0] VGND sky130_fd_pr__cap_mim_m3_1 W=1 L=1 m=1
XC10[9] net10[9] VGND sky130_fd_pr__cap_mim_m3_1 W=1 L=1 m=1
XC10[8] net10[8] VGND sky130_fd_pr__cap_mim_m3_1 W=1 L=1 m=1
XC10[7] net10[7] VGND sky130_fd_pr__cap_mim_m3_1 W=1 L=1 m=1
XC10[6] net10[6] VGND sky130_fd_pr__cap_mim_m3_1 W=1 L=1 m=1
XC10[5] net10[5] VGND sky130_fd_pr__cap_mim_m3_1 W=1 L=1 m=1
XC10[4] net10[4] VGND sky130_fd_pr__cap_mim_m3_1 W=1 L=1 m=1
XC10[3] net10[3] VGND sky130_fd_pr__cap_mim_m3_1 W=1 L=1 m=1
XC10[2] net10[2] VGND sky130_fd_pr__cap_mim_m3_1 W=1 L=1 m=1
XC10[1] net10[1] VGND sky130_fd_pr__cap_mim_m3_1 W=1 L=1 m=1
XC10[0] net10[0] VGND sky130_fd_pr__cap_mim_m3_1 W=1 L=1 m=1
.ends


* expanding   symbol:  array_core_block1.sym # of pins=9
** sym_path: /home/amedcalf/projects/ci2406_fgcaptest/xschem/array_core_block1.sym
** sch_path: /home/amedcalf/projects/ci2406_fgcaptest/xschem/array_core_block1.sch
.subckt array_core_block1 vinj VGND vsrc[9] vsrc[8] vsrc[7] vsrc[6] vsrc[5] vsrc[4] vsrc[3] vsrc[2] vsrc[1] vsrc[0] row_en_6v0[9]
+ row_en_6v0[8] row_en_6v0[7] row_en_6v0[6] row_en_6v0[5] row_en_6v0[4] row_en_6v0[3] row_en_6v0[2] row_en_6v0[1] row_en_6v0[0] row_en_6v0_b[9]
+ row_en_6v0_b[8] row_en_6v0_b[7] row_en_6v0_b[6] row_en_6v0_b[5] row_en_6v0_b[4] row_en_6v0_b[3] row_en_6v0_b[2] row_en_6v0_b[1] row_en_6v0_b[0]
+ vtun vb vctrl vout[9] vout[8] vout[7] vout[6] vout[5] vout[4] vout[3] vout[2] vout[1] vout[0]
*.PININFO vtun:I vinj:I VGND:I vb:I row_en_6v0[9:0]:I row_en_6v0_b[9:0]:I vctrl:I vsrc[9:0]:I vout[9:0]:O
xc0[9] vb row_en_6v0[9] vinj vout[0] row_en_6v0_b[9] vtun vctrl vsrc[0] VGND net1[9] fgcell_amp
xc0[8] vb row_en_6v0[8] vinj vout[0] row_en_6v0_b[8] vtun vctrl vsrc[0] VGND net1[8] fgcell_amp
xc0[7] vb row_en_6v0[7] vinj vout[0] row_en_6v0_b[7] vtun vctrl vsrc[0] VGND net1[7] fgcell_amp
xc0[6] vb row_en_6v0[6] vinj vout[0] row_en_6v0_b[6] vtun vctrl vsrc[0] VGND net1[6] fgcell_amp
xc0[5] vb row_en_6v0[5] vinj vout[0] row_en_6v0_b[5] vtun vctrl vsrc[0] VGND net1[5] fgcell_amp
xc0[4] vb row_en_6v0[4] vinj vout[0] row_en_6v0_b[4] vtun vctrl vsrc[0] VGND net1[4] fgcell_amp
xc0[3] vb row_en_6v0[3] vinj vout[0] row_en_6v0_b[3] vtun vctrl vsrc[0] VGND net1[3] fgcell_amp
xc0[2] vb row_en_6v0[2] vinj vout[0] row_en_6v0_b[2] vtun vctrl vsrc[0] VGND net1[2] fgcell_amp
xc0[1] vb row_en_6v0[1] vinj vout[0] row_en_6v0_b[1] vtun vctrl vsrc[0] VGND net1[1] fgcell_amp
xc0[0] vb row_en_6v0[0] vinj vout[0] row_en_6v0_b[0] vtun vctrl vsrc[0] VGND net1[0] fgcell_amp
xc1[9] vb row_en_6v0[9] vinj vout[1] row_en_6v0_b[9] vtun vctrl vsrc[1] VGND net2[9] fgcell_amp
xc1[8] vb row_en_6v0[8] vinj vout[1] row_en_6v0_b[8] vtun vctrl vsrc[1] VGND net2[8] fgcell_amp
xc1[7] vb row_en_6v0[7] vinj vout[1] row_en_6v0_b[7] vtun vctrl vsrc[1] VGND net2[7] fgcell_amp
xc1[6] vb row_en_6v0[6] vinj vout[1] row_en_6v0_b[6] vtun vctrl vsrc[1] VGND net2[6] fgcell_amp
xc1[5] vb row_en_6v0[5] vinj vout[1] row_en_6v0_b[5] vtun vctrl vsrc[1] VGND net2[5] fgcell_amp
xc1[4] vb row_en_6v0[4] vinj vout[1] row_en_6v0_b[4] vtun vctrl vsrc[1] VGND net2[4] fgcell_amp
xc1[3] vb row_en_6v0[3] vinj vout[1] row_en_6v0_b[3] vtun vctrl vsrc[1] VGND net2[3] fgcell_amp
xc1[2] vb row_en_6v0[2] vinj vout[1] row_en_6v0_b[2] vtun vctrl vsrc[1] VGND net2[2] fgcell_amp
xc1[1] vb row_en_6v0[1] vinj vout[1] row_en_6v0_b[1] vtun vctrl vsrc[1] VGND net2[1] fgcell_amp
xc1[0] vb row_en_6v0[0] vinj vout[1] row_en_6v0_b[0] vtun vctrl vsrc[1] VGND net2[0] fgcell_amp