* NGSPICE file created from top_fgcaptest.ext - technology: sky130A

.subckt pad_minesd_short P_PAD P_CORE VDDIO VSSIO
R0 P_CORE P_PAD sky130_fd_pr__res_generic_m5 w=252.96 l=0.1
X0 P_CORE VDDIO sky130_fd_pr__diode_pd2nw_11v0 perim=1.02e+08 area=5e+13
X1 VSSIO P_CORE sky130_fd_pr__diode_pw2nd_11v0 perim=1.02e+08 area=5e+13
**devattr s=7137360,22068 d=7137360,22068
.ends

.subckt vtun_pad pad sky130_ef_io__bare_pad_0/VSUBS sky130_ef_io__bare_pad_0/PAD GND
X0 sky130_ef_io__bare_pad_0/PAD GND sky130_ef_io__bare_pad_0/VSUBS sky130_fd_pr__res_xhigh_po_1p41 l=728.88
X1 a_5600_9600# sky130_ef_io__bare_pad_0/PAD sky130_fd_pr__res_generic_po w=7 l=24
.ends

.subckt sky130_fd_sc_hd__inv_1 A VGND VNB VPB VPWR Y
X0 Y A VGND VNB sky130_fd_pr__nfet_01v8 ad=0.169 pd=1.82 as=0.169 ps=1.82 w=0.65 l=0.15
X1 Y A VPWR VPB sky130_fd_pr__pfet_01v8_hvt ad=0.26 pd=2.52 as=0.26 ps=2.52 w=1 l=0.15
.ends

.subckt sky130_fd_sc_hd__nand2_2 A B VGND VNB VPB VPWR Y
X0 VPWR A Y VPB sky130_fd_pr__pfet_01v8_hvt ad=0.26 pd=2.52 as=0.135 ps=1.27 w=1 l=0.15
X1 Y A VPWR VPB sky130_fd_pr__pfet_01v8_hvt ad=0.135 pd=1.27 as=0.135 ps=1.27 w=1 l=0.15
X2 VPWR B Y VPB sky130_fd_pr__pfet_01v8_hvt ad=0.135 pd=1.27 as=0.135 ps=1.27 w=1 l=0.15
X3 a_27_47# B VGND VNB sky130_fd_pr__nfet_01v8 ad=0.08775 pd=0.92 as=0.08775 ps=0.92 w=0.65 l=0.15
X4 a_27_47# A Y VNB sky130_fd_pr__nfet_01v8 ad=0.169 pd=1.82 as=0.08775 ps=0.92 w=0.65 l=0.15
X5 Y A a_27_47# VNB sky130_fd_pr__nfet_01v8 ad=0.08775 pd=0.92 as=0.08775 ps=0.92 w=0.65 l=0.15
X6 Y B VPWR VPB sky130_fd_pr__pfet_01v8_hvt ad=0.135 pd=1.27 as=0.26 ps=2.52 w=1 l=0.15
X7 VGND B a_27_47# VNB sky130_fd_pr__nfet_01v8 ad=0.08775 pd=0.92 as=0.169 ps=1.82 w=0.65 l=0.15
.ends

.subckt sky130_fd_sc_hd__decap_3 VGND VNB VPB VPWR
X0 VPWR VGND VPWR VPB sky130_fd_pr__pfet_01v8_hvt ad=0.2262 pd=2.26 as=0.4524 ps=4.52 w=0.87 l=0.59
X1 VGND VPWR VGND VNB sky130_fd_pr__nfet_01v8 ad=0.143 pd=1.62 as=0.286 ps=3.24 w=0.55 l=0.59
.ends

.subckt sky130_fd_sc_hd__nor3_1 A B C VGND VNB VPB VPWR Y
X0 VPWR A a_193_297# VPB sky130_fd_pr__pfet_01v8_hvt ad=0.26 pd=2.52 as=0.135 ps=1.27 w=1 l=0.15
X1 a_193_297# B a_109_297# VPB sky130_fd_pr__pfet_01v8_hvt ad=0.135 pd=1.27 as=0.135 ps=1.27 w=1 l=0.15
X2 Y B VGND VNB sky130_fd_pr__nfet_01v8 ad=0.08775 pd=0.92 as=0.08775 ps=0.92 w=0.65 l=0.15
X3 VGND A Y VNB sky130_fd_pr__nfet_01v8 ad=0.169 pd=1.82 as=0.08775 ps=0.92 w=0.65 l=0.15
X4 a_109_297# C Y VPB sky130_fd_pr__pfet_01v8_hvt ad=0.135 pd=1.27 as=0.26 ps=2.52 w=1 l=0.15
X5 VGND C Y VNB sky130_fd_pr__nfet_01v8 ad=0.08775 pd=0.92 as=0.169 ps=1.82 w=0.65 l=0.15
.ends

.subckt array_column_decode a[3] a[2] a[1] a[0] w[15] w[14] w[13] w[12] w[11] w[10]
+ w[9] w[7] w[6] w[5] w[4] w[3] w[2] w[1] w[0] w[8] VGND VPWR
Xx3 a[2] VGND VGND VPWR VPWR x3/Y sky130_fd_sc_hd__inv_1
Xx2 a[3] VGND VGND VPWR VPWR x2/Y sky130_fd_sc_hd__inv_1
Xx4 a[1] VGND VGND VPWR VPWR x6/B sky130_fd_sc_hd__inv_1
Xx5 a[0] VGND VGND VPWR VPWR x8/A sky130_fd_sc_hd__inv_1
Xx6 x8/A x6/B VGND VGND VPWR VPWR x6/Y sky130_fd_sc_hd__nand2_2
Xsky130_fd_sc_hd__decap_3_0[0] VGND VGND VPWR VPWR sky130_fd_sc_hd__decap_3
Xsky130_fd_sc_hd__decap_3_0[1] VGND VGND VPWR VPWR sky130_fd_sc_hd__decap_3
Xsky130_fd_sc_hd__decap_3_0[2] VGND VGND VPWR VPWR sky130_fd_sc_hd__decap_3
Xsky130_fd_sc_hd__decap_3_0[3] VGND VGND VPWR VPWR sky130_fd_sc_hd__decap_3
Xsky130_fd_sc_hd__decap_3_0[4] VGND VGND VPWR VPWR sky130_fd_sc_hd__decap_3
Xsky130_fd_sc_hd__decap_3_0[5] VGND VGND VPWR VPWR sky130_fd_sc_hd__decap_3
Xsky130_fd_sc_hd__decap_3_0[6] VGND VGND VPWR VPWR sky130_fd_sc_hd__decap_3
Xsky130_fd_sc_hd__decap_3_0[7] VGND VGND VPWR VPWR sky130_fd_sc_hd__decap_3
Xsky130_fd_sc_hd__nand2_2_0 a[0] x6/B VGND VGND VPWR VPWR sky130_fd_sc_hd__nand2_2_0/Y
+ sky130_fd_sc_hd__nand2_2
Xx8 x8/A a[1] VGND VGND VPWR VPWR x8/Y sky130_fd_sc_hd__nand2_2
Xsky130_fd_sc_hd__decap_3_1[0] VGND VGND VPWR VPWR sky130_fd_sc_hd__decap_3
Xsky130_fd_sc_hd__decap_3_1[1] VGND VGND VPWR VPWR sky130_fd_sc_hd__decap_3
Xsky130_fd_sc_hd__decap_3_1[2] VGND VGND VPWR VPWR sky130_fd_sc_hd__decap_3
Xsky130_fd_sc_hd__decap_3_1[3] VGND VGND VPWR VPWR sky130_fd_sc_hd__decap_3
Xsky130_fd_sc_hd__decap_3_1[4] VGND VGND VPWR VPWR sky130_fd_sc_hd__decap_3
Xsky130_fd_sc_hd__decap_3_1[5] VGND VGND VPWR VPWR sky130_fd_sc_hd__decap_3
Xsky130_fd_sc_hd__decap_3_1[6] VGND VGND VPWR VPWR sky130_fd_sc_hd__decap_3
Xsky130_fd_sc_hd__decap_3_1[7] VGND VGND VPWR VPWR sky130_fd_sc_hd__decap_3
Xx9 a[0] a[1] VGND VGND VPWR VPWR x9/Y sky130_fd_sc_hd__nand2_2
Xsky130_fd_sc_hd__decap_3_2 VGND VGND VPWR VPWR sky130_fd_sc_hd__decap_3
Xx10 x3/Y x2/Y VGND VGND VPWR VPWR x10/Y sky130_fd_sc_hd__nand2_2
Xx11 a[2] x2/Y VGND VGND VPWR VPWR x11/Y sky130_fd_sc_hd__nand2_2
Xx12 x3/Y a[3] VGND VGND VPWR VPWR x12/Y sky130_fd_sc_hd__nand2_2
Xx13 a[2] a[3] VGND VGND VPWR VPWR x13/Y sky130_fd_sc_hd__nand2_2
Xsky130_fd_sc_hd__nor3_1_0[0] x8/Y x13/Y VGND VGND VGND VPWR VPWR w[14] sky130_fd_sc_hd__nor3_1
Xsky130_fd_sc_hd__nor3_1_0[1] x6/Y x13/Y VGND VGND VGND VPWR VPWR w[12] sky130_fd_sc_hd__nor3_1
Xsky130_fd_sc_hd__nor3_1_0[2] x8/Y x12/Y VGND VGND VGND VPWR VPWR w[10] sky130_fd_sc_hd__nor3_1
Xsky130_fd_sc_hd__nor3_1_0[3] x6/Y x12/Y VGND VGND VGND VPWR VPWR w[8] sky130_fd_sc_hd__nor3_1
Xsky130_fd_sc_hd__nor3_1_0[4] x8/Y x11/Y VGND VGND VGND VPWR VPWR w[6] sky130_fd_sc_hd__nor3_1
Xsky130_fd_sc_hd__nor3_1_0[5] x6/Y x11/Y VGND VGND VGND VPWR VPWR w[4] sky130_fd_sc_hd__nor3_1
Xsky130_fd_sc_hd__nor3_1_0[6] x8/Y x10/Y VGND VGND VGND VPWR VPWR w[2] sky130_fd_sc_hd__nor3_1
Xsky130_fd_sc_hd__nor3_1_0[7] x6/Y x10/Y VGND VGND VGND VPWR VPWR w[0] sky130_fd_sc_hd__nor3_1
Xsky130_fd_sc_hd__nor3_1_1[0] x9/Y x13/Y VGND VGND VGND VPWR VPWR w[15] sky130_fd_sc_hd__nor3_1
Xsky130_fd_sc_hd__nor3_1_1[1] sky130_fd_sc_hd__nand2_2_0/Y x13/Y VGND VGND VGND VPWR
+ VPWR w[13] sky130_fd_sc_hd__nor3_1
Xsky130_fd_sc_hd__nor3_1_1[2] x9/Y x12/Y VGND VGND VGND VPWR VPWR w[11] sky130_fd_sc_hd__nor3_1
Xsky130_fd_sc_hd__nor3_1_1[3] sky130_fd_sc_hd__nand2_2_0/Y x12/Y VGND VGND VGND VPWR
+ VPWR w[9] sky130_fd_sc_hd__nor3_1
Xsky130_fd_sc_hd__nor3_1_1[4] x9/Y x11/Y VGND VGND VGND VPWR VPWR w[7] sky130_fd_sc_hd__nor3_1
Xsky130_fd_sc_hd__nor3_1_1[5] sky130_fd_sc_hd__nand2_2_0/Y x11/Y VGND VGND VGND VPWR
+ VPWR w[5] sky130_fd_sc_hd__nor3_1
Xsky130_fd_sc_hd__nor3_1_1[6] x9/Y x10/Y VGND VGND VGND VPWR VPWR w[3] sky130_fd_sc_hd__nor3_1
Xsky130_fd_sc_hd__nor3_1_1[7] sky130_fd_sc_hd__nand2_2_0/Y x10/Y VGND VGND VGND VPWR
+ VPWR w[1] sky130_fd_sc_hd__nor3_1
.ends

.subckt fgcell vinj vinj_en_b vtun vctrl vsrc VGND vfg
X0 a_697_110# vfg vsrc vinj sky130_fd_pr__pfet_g5v0d10v5 ad=0.145 pd=1.29 as=0.29 ps=2.58 w=1 l=0.5
X1 vfg vtun VGND sky130_fd_pr__cap_var w=1 l=0.5
X2 vinj vinj_en_b a_697_110# vinj sky130_fd_pr__pfet_g5v0d10v5 ad=0.29 pd=2.58 as=0.145 ps=1.29 w=1 l=0.5
X3 vctrl vfg vctrl vctrl sky130_fd_pr__pfet_g5v0d10v5 ad=0.29 pd=2.58 as=0.58 ps=5.16 w=1 l=0.5
.ends

.subckt diffamp_nmos v1 v2 VSS VDD vb vout
X0 int3 int3 VDD VDD sky130_fd_pr__pfet_g5v0d10v5 ad=0.75 pd=4 as=0.375 ps=2 w=1.5 l=1
X1 int1 v1 int4 VSS sky130_fd_pr__nfet_g5v0d10v5 ad=0.375 pd=2 as=0.75 ps=4 w=1.5 l=1
X2 int5 vb int1 VSS sky130_fd_pr__nfet_g5v0d10v5 ad=0.375 pd=2 as=0.75 ps=4 w=1.5 l=1
X3 VSS int2 int2 VSS sky130_fd_pr__nfet_g5v0d10v5 ad=0.375 pd=2 as=0.75 ps=4 w=1.5 l=1
X4 VSS vb int5 VSS sky130_fd_pr__nfet_g5v0d10v5 ad=0.75 pd=4 as=0.375 ps=2 w=1.5 l=1
X5 VDD int4 int4 VDD sky130_fd_pr__pfet_g5v0d10v5 ad=0.375 pd=2 as=0.75 ps=4 w=1.5 l=1
X6 vout int2 VSS VSS sky130_fd_pr__nfet_g5v0d10v5 ad=0.75 pd=4 as=0.375 ps=2 w=1.5 l=1
X7 VDD int3 int2 VDD sky130_fd_pr__pfet_g5v0d10v5 ad=0.375 pd=2 as=0.75 ps=4 w=1.5 l=1
X8 int3 v2 int1 VSS sky130_fd_pr__nfet_g5v0d10v5 ad=0.75 pd=4 as=0.375 ps=2 w=1.5 l=1
X9 vout int4 VDD VDD sky130_fd_pr__pfet_g5v0d10v5 ad=0.75 pd=4 as=0.375 ps=2 w=1.5 l=1
.ends

.subckt tg5v0 vin vout en en_b vdd vss
X0 vout en vin vss sky130_fd_pr__nfet_g5v0d10v5 ad=0.0725 pd=0.79 as=0.0725 ps=0.79 w=0.5 l=0.5
X1 vout en vin vss sky130_fd_pr__nfet_g5v0d10v5 ad=0.0725 pd=0.79 as=0.0725 ps=0.79 w=0.5 l=0.5
X2 vin en vout vss sky130_fd_pr__nfet_g5v0d10v5 ad=0.0725 pd=0.79 as=0.0725 ps=0.79 w=0.5 l=0.5
X3 vin en vout vss sky130_fd_pr__nfet_g5v0d10v5 ad=0.145 pd=1.58 as=0.0725 ps=0.79 w=0.5 l=0.5
X4 vout en vin vss sky130_fd_pr__nfet_g5v0d10v5 ad=0.0725 pd=0.79 as=0.0725 ps=0.79 w=0.5 l=0.5
X5 vout en_b vin vdd sky130_fd_pr__pfet_g5v0d10v5 ad=0.0725 pd=0.79 as=0.0725 ps=0.79 w=0.5 l=0.5
X6 vout en_b vin vdd sky130_fd_pr__pfet_g5v0d10v5 ad=0.0725 pd=0.79 as=0.0725 ps=0.79 w=0.5 l=0.5
X7 vin en vout vss sky130_fd_pr__nfet_g5v0d10v5 ad=0.0725 pd=0.79 as=0.0725 ps=0.79 w=0.5 l=0.5
X8 vin en vout vss sky130_fd_pr__nfet_g5v0d10v5 ad=0.0725 pd=0.79 as=0.0725 ps=0.79 w=0.5 l=0.5
X9 vin en_b vout vdd sky130_fd_pr__pfet_g5v0d10v5 ad=0.0725 pd=0.79 as=0.0725 ps=0.79 w=0.5 l=0.5
X10 vin en_b vout vdd sky130_fd_pr__pfet_g5v0d10v5 ad=0.145 pd=1.58 as=0.0725 ps=0.79 w=0.5 l=0.5
X11 vout en vin vss sky130_fd_pr__nfet_g5v0d10v5 ad=0.0725 pd=0.79 as=0.145 ps=1.58 w=0.5 l=0.5
X12 vout en_b vin vdd sky130_fd_pr__pfet_g5v0d10v5 ad=0.0725 pd=0.79 as=0.0725 ps=0.79 w=0.5 l=0.5
X13 vin en_b vout vdd sky130_fd_pr__pfet_g5v0d10v5 ad=0.0725 pd=0.79 as=0.0725 ps=0.79 w=0.5 l=0.5
X14 vin en_b vout vdd sky130_fd_pr__pfet_g5v0d10v5 ad=0.0725 pd=0.79 as=0.0725 ps=0.79 w=0.5 l=0.5
X15 vout en_b vin vdd sky130_fd_pr__pfet_g5v0d10v5 ad=0.0725 pd=0.79 as=0.145 ps=1.58 w=0.5 l=0.5
.ends

.subckt fgcell_amp_MOS_cap_thin_poly tg5v0_0/vout vdd vtun x1/vctrl row_en vsrc row_en_b
+ VGND x2/vb x1/vinj
Xx1 x1/vinj row_en_b vtun x1/vctrl vsrc VGND x2/v1 fgcell
Xx2 x2/v1 x2/v2 VGND vdd x2/vb x2/v2 diffamp_nmos
Xtg5v0_0 x2/v2 tg5v0_0/vout row_en row_en_b x1/vinj VGND tg5v0
X0 a_1282_n6014# x2/v1 a_1282_n6014# VGND sky130_fd_pr__nfet_g5v0d10v5 ad=4.275 pd=34.58 as=4.275 ps=34.58 w=8.01 l=0.5
.ends

.subckt fgcell_amp_MOS_cap_thick_poly vout vdd row_en_b x1/vtun VSRC x1/vctrl row_en
+ VGND x2/vb vinj
Xx1 vinj row_en_b x1/vtun x1/vctrl VSRC VGND x2/v1 fgcell
Xx2 x2/v1 x2/v2 VGND vdd x2/vb x2/v2 diffamp_nmos
Xtg5v0_0 x2/v2 vout row_en row_en_b vinj VGND tg5v0
.ends

.subckt array_core_block5 fgcell_amp_MOS_cap_thick_poly_0[3|6]/vout fgcell_amp_MOS_cap_thin_poly_0[0|6]/vtun
+ fgcell_amp_MOS_cap_thin_poly_0[2|2]/tg5v0_0/vout fgcell_amp_MOS_cap_thin_poly_0[1|7]/x1/vctrl
+ fgcell_amp_MOS_cap_thick_poly_0[3|1]/VSRC fgcell_amp_MOS_cap_thick_poly_0[0|6]/x1/vctrl
+ fgcell_amp_MOS_cap_thin_poly_0[0|3]/x1/vctrl fgcell_amp_MOS_cap_thick_poly_0[1|5]/vout
+ fgcell_amp_MOS_cap_thick_poly_0[2|8]/VSRC fgcell_amp_MOS_cap_thin_poly_0[0|1]/tg5v0_0/vout
+ fgcell_amp_MOS_cap_thick_poly_0[1|9]/x2/vb fgcell_amp_MOS_cap_thick_poly_0[4|3]/x1/vtun
+ fgcell_amp_MOS_cap_thick_poly_0[1|4]/row_en fgcell_amp_MOS_cap_thick_poly_0[2|5]/x2/vb
+ fgcell_amp_MOS_cap_thin_poly_0[2|7]/x1/vctrl fgcell_amp_MOS_cap_thin_poly_0[2|6]/x2/vb
+ fgcell_amp_MOS_cap_thin_poly_0[3|8]/tg5v0_0/vout fgcell_amp_MOS_cap_thick_poly_0[1|6]/x1/vctrl
+ fgcell_amp_MOS_cap_thin_poly_0[1|3]/x1/vctrl fgcell_amp_MOS_cap_thick_poly_0[2|7]/x1/vtun
+ fgcell_amp_MOS_cap_thick_poly_0[0|2]/VSRC fgcell_amp_MOS_cap_thick_poly_0[4|1]/vdd
+ fgcell_amp_MOS_cap_thick_poly_0[0|2]/x1/vctrl fgcell_amp_MOS_cap_thick_poly_0[4|0]/row_en
+ fgcell_amp_MOS_cap_thin_poly_0[1|7]/tg5v0_0/vout fgcell_amp_MOS_cap_thick_poly_0[3|1]/x2/vb
+ fgcell_amp_MOS_cap_thin_poly_0[0|0]/row_en fgcell_amp_MOS_cap_thin_poly_0[3|2]/x2/vb
+ fgcell_amp_MOS_cap_thick_poly_0[1|5]/row_en fgcell_amp_MOS_cap_thick_poly_0[1|4]/x1/vtun
+ fgcell_amp_MOS_cap_thick_poly_0[3|2]/vdd fgcell_amp_MOS_cap_thin_poly_0[3|7]/x1/vctrl
+ fgcell_amp_MOS_cap_thin_poly_0[3|3]/vsrc fgcell_amp_MOS_cap_thick_poly_0[2|6]/x1/vctrl
+ fgcell_amp_MOS_cap_thin_poly_0[2|3]/x1/vctrl fgcell_amp_MOS_cap_thick_poly_0[1|2]/x1/vctrl
+ fgcell_amp_MOS_cap_thick_poly_0[4|5]/vdd fgcell_amp_MOS_cap_thick_poly_0[2|3]/vdd
+ fgcell_amp_MOS_cap_thin_poly_0[2|0]/vsrc fgcell_amp_MOS_cap_thick_poly_0[1|6]/row_en
+ fgcell_amp_MOS_cap_thick_poly_0[2|4]/vinj fgcell_amp_MOS_cap_thin_poly_0[1|7]/vsrc
+ fgcell_amp_MOS_cap_thick_poly_0[4|4]/vout fgcell_amp_MOS_cap_thick_poly_0[0|7]/x2/vb
+ fgcell_amp_MOS_cap_thin_poly_0[3|0]/tg5v0_0/vout fgcell_amp_MOS_cap_thin_poly_0[4|7]/x1/vctrl
+ fgcell_amp_MOS_cap_thin_poly_0[0|8]/x2/vb fgcell_amp_MOS_cap_thin_poly_0[3|2]/vtun
+ fgcell_amp_MOS_cap_thick_poly_0[3|6]/x1/vctrl fgcell_amp_MOS_cap_thin_poly_0[3|3]/x1/vctrl
+ fgcell_amp_MOS_cap_thin_poly_0[0|4]/vsrc fgcell_amp_MOS_cap_thin_poly_0[2|9]/vtun
+ fgcell_amp_MOS_cap_thick_poly_0[2|3]/vout fgcell_amp_MOS_cap_thick_poly_0[2|2]/x1/vctrl
+ fgcell_amp_MOS_cap_thick_poly_0[1|3]/x2/vb fgcell_amp_MOS_cap_thick_poly_0[4|2]/row_en
+ fgcell_amp_MOS_cap_thick_poly_0[4|9]/vdd fgcell_amp_MOS_cap_thin_poly_0[1|4]/x2/vb
+ fgcell_amp_MOS_cap_thin_poly_0[0|2]/row_en fgcell_amp_MOS_cap_thick_poly_0[1|7]/row_en
+ fgcell_amp_MOS_cap_thick_poly_0[0|5]/vdd fgcell_amp_MOS_cap_thick_poly_0[4|8]/x2/vb
+ fgcell_amp_MOS_cap_thin_poly_0[4|9]/x2/vb fgcell_amp_MOS_cap_thick_poly_0[0|2]/vout
+ fgcell_amp_MOS_cap_thin_poly_0[2|0]/x2/vb fgcell_amp_MOS_cap_thick_poly_0[4|1]/VSRC
+ fgcell_amp_MOS_cap_thin_poly_0[4|6]/tg5v0_0/vout fgcell_amp_MOS_cap_thick_poly_0[4|6]/x1/vctrl
+ fgcell_amp_MOS_cap_thin_poly_0[4|3]/x1/vctrl fgcell_amp_MOS_cap_thick_poly_0[3|8]/VSRC
+ fgcell_amp_MOS_cap_thick_poly_0[4|1]/row_en fgcell_amp_MOS_cap_thin_poly_0[0|3]/vtun
+ fgcell_amp_MOS_cap_thick_poly_0[3|2]/x1/vctrl fgcell_amp_MOS_cap_thick_poly_0[4|3]/row_en
+ fgcell_amp_MOS_cap_thin_poly_0[0|3]/row_en fgcell_amp_MOS_cap_thick_poly_0[3|9]/vout
+ fgcell_amp_MOS_cap_thin_poly_0[2|5]/tg5v0_0/vout fgcell_amp_MOS_cap_thick_poly_0[1|8]/vout
+ fgcell_amp_MOS_cap_thin_poly_0[0|4]/tg5v0_0/vout fgcell_amp_MOS_cap_thick_poly_0[4|0]/x1/vtun
+ fgcell_amp_MOS_cap_thick_poly_0[1|2]/VSRC fgcell_amp_MOS_cap_thick_poly_0[4|2]/x1/vctrl
+ fgcell_amp_MOS_cap_thick_poly_0[0|9]/VSRC fgcell_amp_MOS_cap_thick_poly_0[4|4]/row_en
+ fgcell_amp_MOS_cap_thin_poly_0[0|4]/row_en fgcell_amp_MOS_cap_thick_poly_0[1|9]/row_en
+ fgcell_amp_MOS_cap_thick_poly_0[2|4]/x1/vtun fgcell_amp_MOS_cap_thick_poly_0[0|1]/x2/vb
+ fgcell_amp_MOS_cap_thin_poly_0[0|2]/x2/vb fgcell_amp_MOS_cap_thin_poly_0[0|3]/x1/vinj
+ fgcell_amp_MOS_cap_thin_poly_0[4|3]/vsrc fgcell_amp_MOS_cap_thick_poly_0[3|6]/x2/vb
+ fgcell_amp_MOS_cap_thin_poly_0[3|7]/x2/vb fgcell_amp_MOS_cap_thick_poly_0[4|5]/row_en
+ fgcell_amp_MOS_cap_thick_poly_0[3|1]/vout fgcell_amp_MOS_cap_thin_poly_0[0|5]/row_en
+ fgcell_amp_MOS_cap_thin_poly_0[3|0]/vsrc fgcell_amp_MOS_cap_thin_poly_0[2|7]/vsrc
+ fgcell_amp_MOS_cap_thick_poly_0[4|2]/x2/vb fgcell_amp_MOS_cap_thin_poly_0[4|3]/x2/vb
+ fgcell_amp_MOS_cap_thin_poly_0[3|4]/vdd fgcell_amp_MOS_cap_thick_poly_0[1|0]/vout
+ fgcell_amp_MOS_cap_thin_poly_0[1|2]/vdd fgcell_amp_MOS_cap_thick_poly_0[1|8]/row_en
+ fgcell_amp_MOS_cap_thin_poly_0[4|2]/vtun fgcell_amp_MOS_cap_thin_poly_0[3|9]/vtun
+ fgcell_amp_MOS_cap_thin_poly_0[1|4]/vsrc fgcell_amp_MOS_cap_thick_poly_0[4|6]/row_en
+ fgcell_amp_MOS_cap_thin_poly_0[2|5]/vdd fgcell_amp_MOS_cap_thin_poly_0[0|6]/row_en
+ fgcell_amp_MOS_cap_thick_poly_0[4|7]/vout fgcell_amp_MOS_cap_thin_poly_0[3|3]/tg5v0_0/vout
+ fgcell_amp_MOS_cap_thin_poly_0[2|6]/vtun fgcell_amp_MOS_cap_thin_poly_0[0|1]/vsrc
+ fgcell_amp_MOS_cap_thick_poly_0[0|5]/vinj fgcell_amp_MOS_cap_thin_poly_0[1|6]/vdd
+ fgcell_amp_MOS_cap_thick_poly_0[2|6]/vout fgcell_amp_MOS_cap_thin_poly_0[3|2]/x1/vinj
+ fgcell_amp_MOS_cap_thin_poly_0[1|2]/tg5v0_0/vout fgcell_amp_MOS_cap_thin_poly_0[1|6]/x1/vinj
+ fgcell_amp_MOS_cap_thick_poly_0[1|8]/x2/vb fgcell_amp_MOS_cap_thick_poly_0[4|8]/VSRC
+ fgcell_amp_MOS_cap_thin_poly_0[1|9]/x2/vb fgcell_amp_MOS_cap_thick_poly_0[4|7]/row_en
+ fgcell_amp_MOS_cap_thin_poly_0[0|7]/row_en fgcell_amp_MOS_cap_thin_poly_0[2|9]/vdd
+ fgcell_amp_MOS_cap_thick_poly_0[0|5]/vout fgcell_amp_MOS_cap_thin_poly_0[3|0]/row_en
+ fgcell_amp_MOS_cap_thick_poly_0[2|4]/x2/vb fgcell_amp_MOS_cap_thin_poly_0[0|0]/vtun
+ fgcell_amp_MOS_cap_thin_poly_0[2|5]/x2/vb fgcell_amp_MOS_cap_thin_poly_0[4|9]/tg5v0_0/vout
+ fgcell_amp_MOS_cap_thick_poly_0[2|2]/VSRC fgcell_amp_MOS_cap_thick_poly_0[4|7]/x1/vtun
+ fgcell_amp_MOS_cap_thick_poly_0[0|8]/x1/vtun fgcell_amp_MOS_cap_thick_poly_0[3|0]/x2/vb
+ fgcell_amp_MOS_cap_thin_poly_0[2|8]/tg5v0_0/vout fgcell_amp_MOS_cap_thin_poly_0[3|1]/x2/vb
+ fgcell_amp_MOS_cap_thick_poly_0[1|9]/VSRC fgcell_amp_MOS_cap_thin_poly_0[0|8]/x1/vctrl
+ fgcell_amp_MOS_cap_thin_poly_0[0|7]/tg5v0_0/vout fgcell_amp_MOS_cap_thin_poly_0[3|4]/row_en
+ fgcell_amp_MOS_cap_thin_poly_0[2|9]/x1/vinj fgcell_amp_MOS_cap_thick_poly_0[4|9]/row_en
+ fgcell_amp_MOS_cap_thin_poly_0[0|9]/row_en fgcell_amp_MOS_cap_thick_poly_0[2|5]/VSRC
+ fgcell_amp_MOS_cap_thin_poly_0[4|0]/vsrc fgcell_amp_MOS_cap_thin_poly_0[1|8]/x1/vctrl
+ fgcell_amp_MOS_cap_thick_poly_0[0|6]/x2/vb fgcell_amp_MOS_cap_thin_poly_0[3|7]/vsrc
+ fgcell_amp_MOS_cap_thin_poly_0[4|1]/tg5v0_0/vout fgcell_amp_MOS_cap_thin_poly_0[0|7]/x2/vb
+ fgcell_amp_MOS_cap_thick_poly_0[0|7]/x1/vctrl fgcell_amp_MOS_cap_thin_poly_0[0|4]/x1/vctrl
+ fgcell_amp_MOS_cap_thick_poly_0[0|9]/vdd fgcell_amp_MOS_cap_thick_poly_0[3|4]/vout
+ fgcell_amp_MOS_cap_thick_poly_0[3|1]/vinj fgcell_amp_MOS_cap_thin_poly_0[4|9]/vtun
+ fgcell_amp_MOS_cap_thin_poly_0[2|4]/vsrc fgcell_amp_MOS_cap_thin_poly_0[2|0]/tg5v0_0/vout
+ fgcell_amp_MOS_cap_thick_poly_0[1|2]/x2/vb fgcell_amp_MOS_cap_thick_poly_0[2|8]/vinj
+ fgcell_amp_MOS_cap_thin_poly_0[1|3]/x2/vb fgcell_amp_MOS_cap_thick_poly_0[3|4]/vinj
+ fgcell_amp_MOS_cap_thick_poly_0[4|7]/x2/vb fgcell_amp_MOS_cap_thin_poly_0[4|8]/x2/vb
+ fgcell_amp_MOS_cap_thin_poly_0[2|8]/x1/vctrl fgcell_amp_MOS_cap_thick_poly_0[1|3]/vout
+ fgcell_amp_MOS_cap_thin_poly_0[1|1]/vsrc fgcell_amp_MOS_cap_thin_poly_0[3|6]/vtun
+ fgcell_amp_MOS_cap_thick_poly_0[1|7]/x1/vctrl fgcell_amp_MOS_cap_thick_poly_0[1|5]/vinj
+ fgcell_amp_MOS_cap_thin_poly_0[1|4]/x1/vctrl fgcell_amp_MOS_cap_thin_poly_0[0|8]/vsrc
+ fgcell_amp_MOS_cap_thick_poly_0[0|3]/x1/vctrl fgcell_amp_MOS_cap_thin_poly_0[0|0]/x1/vctrl
+ fgcell_amp_MOS_cap_thin_poly_0[4|5]/vtun fgcell_amp_MOS_cap_thick_poly_0[2|7]/vdd
+ fgcell_amp_MOS_cap_thin_poly_0[2|3]/vtun fgcell_amp_MOS_cap_thin_poly_0[3|6]/tg5v0_0/vout
+ fgcell_amp_MOS_cap_thin_poly_0[3|8]/x1/vctrl fgcell_amp_MOS_cap_thick_poly_0[4|2]/vdd
+ fgcell_amp_MOS_cap_thick_poly_0[2|0]/vdd fgcell_amp_MOS_cap_thin_poly_0[4|6]/x1/vinj
+ fgcell_amp_MOS_cap_thick_poly_0[2|7]/x1/vctrl fgcell_amp_MOS_cap_thin_poly_0[2|4]/x1/vctrl
+ fgcell_amp_MOS_cap_thick_poly_0[2|9]/vout fgcell_amp_MOS_cap_thin_poly_0[0|7]/vtun
+ fgcell_amp_MOS_cap_thin_poly_0[1|5]/tg5v0_0/vout fgcell_amp_MOS_cap_thick_poly_0[2|0]/row_en
+ fgcell_amp_MOS_cap_thick_poly_0[1|0]/vdd fgcell_amp_MOS_cap_thick_poly_0[1|3]/x1/vctrl
+ fgcell_amp_MOS_cap_thin_poly_0[1|0]/x1/vctrl fgcell_amp_MOS_cap_thick_poly_0[3|3]/vdd
+ fgcell_amp_MOS_cap_thick_poly_0[3|2]/VSRC fgcell_amp_MOS_cap_thin_poly_0[3|3]/x1/vinj
+ fgcell_amp_MOS_cap_thick_poly_0[2|9]/VSRC fgcell_amp_MOS_cap_thick_poly_0[0|8]/vout
+ fgcell_amp_MOS_cap_thick_poly_0[2|9]/x2/vb fgcell_amp_MOS_cap_thin_poly_0[4|8]/x1/vctrl
+ fgcell_amp_MOS_cap_thick_poly_0[4|4]/x1/vtun fgcell_amp_MOS_cap_thick_poly_0[0|0]/x2/vb
+ fgcell_amp_MOS_cap_thick_poly_0[3|7]/x1/vctrl fgcell_amp_MOS_cap_thick_poly_0[0|2]/vdd
+ fgcell_amp_MOS_cap_thin_poly_0[3|4]/x1/vctrl fgcell_amp_MOS_cap_thin_poly_0[1|7]/x1/vinj
+ fgcell_amp_MOS_cap_thin_poly_0[0|1]/x2/vb fgcell_amp_MOS_cap_thick_poly_0[1|6]/VSRC
+ fgcell_amp_MOS_cap_thick_poly_0[3|5]/x2/vb fgcell_amp_MOS_cap_thick_poly_0[2|3]/x1/vctrl
+ fgcell_amp_MOS_cap_thin_poly_0[2|0]/x1/vctrl fgcell_amp_MOS_cap_thin_poly_0[3|6]/x2/vb
+ fgcell_amp_MOS_cap_thick_poly_0[3|7]/vdd fgcell_amp_MOS_cap_thin_poly_0[3|8]/row_en
+ fgcell_amp_MOS_cap_thick_poly_0[3|1]/x1/vtun fgcell_amp_MOS_cap_thick_poly_0[4|2]/vout
+ fgcell_amp_MOS_cap_thick_poly_0[0|3]/VSRC fgcell_amp_MOS_cap_thin_poly_0[1|0]/x1/vinj
+ fgcell_amp_MOS_cap_thin_poly_0[1|0]/vtun fgcell_amp_MOS_cap_thick_poly_0[4|1]/x2/vb
+ fgcell_amp_MOS_cap_thin_poly_0[4|2]/x2/vb fgcell_amp_MOS_cap_thin_poly_0[4|7]/vsrc
+ fgcell_amp_MOS_cap_thick_poly_0[4|7]/x1/vctrl fgcell_amp_MOS_cap_thick_poly_0[2|1]/vout
+ fgcell_amp_MOS_cap_thin_poly_0[4|4]/x1/vctrl fgcell_amp_MOS_cap_thick_poly_0[0|6]/vdd
+ fgcell_amp_MOS_cap_thick_poly_0[1|5]/x1/vtun fgcell_amp_MOS_cap_thick_poly_0[2|2]/row_en
+ fgcell_amp_MOS_cap_thick_poly_0[3|3]/x1/vctrl fgcell_amp_MOS_cap_thin_poly_0[3|0]/x1/vctrl
+ fgcell_amp_MOS_cap_thin_poly_0[3|4]/vsrc fgcell_amp_MOS_cap_thin_poly_0[0|3]/vdd
+ fgcell_amp_MOS_cap_thick_poly_0[0|0]/vout fgcell_amp_MOS_cap_thick_poly_0[1|9]/vdd
+ fgcell_amp_MOS_cap_thick_poly_0[0|2]/x1/vtun fgcell_amp_MOS_cap_thick_poly_0[2|4]/vdd
+ fgcell_amp_MOS_cap_thick_poly_0[0|1]/x1/vtun fgcell_amp_MOS_cap_thin_poly_0[4|4]/tg5v0_0/vout
+ fgcell_amp_MOS_cap_thin_poly_0[3|8]/vdd fgcell_amp_MOS_cap_thin_poly_0[4|6]/vtun
+ fgcell_amp_MOS_cap_thin_poly_0[2|1]/vsrc fgcell_amp_MOS_cap_thick_poly_0[2|5]/vinj
+ fgcell_amp_MOS_cap_thick_poly_0[2|3]/row_en fgcell_amp_MOS_cap_thin_poly_0[1|8]/vsrc
+ fgcell_amp_MOS_cap_thick_poly_0[3|7]/vout fgcell_amp_MOS_cap_thick_poly_0[1|7]/x2/vb
+ fgcell_amp_MOS_cap_thick_poly_0[4|3]/x1/vctrl fgcell_amp_MOS_cap_thin_poly_0[4|0]/x1/vctrl
+ fgcell_amp_MOS_cap_thin_poly_0[2|3]/tg5v0_0/vout fgcell_amp_MOS_cap_thin_poly_0[1|8]/x2/vb
+ fgcell_amp_MOS_cap_thick_poly_0[3|7]/vinj fgcell_amp_MOS_cap_thin_poly_0[3|3]/vtun
+ fgcell_amp_MOS_cap_thin_poly_0[2|1]/vdd fgcell_amp_MOS_cap_thick_poly_0[1|6]/vout
+ fgcell_amp_MOS_cap_thick_poly_0[4|0]/vinj fgcell_amp_MOS_cap_thin_poly_0[2|3]/x1/vinj
+ fgcell_amp_MOS_cap_thin_poly_0[0|2]/tg5v0_0/vout fgcell_amp_MOS_cap_thick_poly_0[2|3]/x2/vb
+ fgcell_amp_MOS_cap_thin_poly_0[0|7]/x1/vinj fgcell_amp_MOS_cap_thin_poly_0[2|4]/x2/vb
+ fgcell_amp_MOS_cap_thin_poly_0[2|0]/vtun fgcell_amp_MOS_cap_thick_poly_0[2|4]/row_en
+ fgcell_amp_MOS_cap_thin_poly_0[3|1]/vdd fgcell_amp_MOS_cap_thin_poly_0[3|0]/x2/vb
+ fgcell_amp_MOS_cap_thin_poly_0[3|9]/tg5v0_0/vout fgcell_amp_MOS_cap_thin_poly_0[4|3]/x1/vinj
+ fgcell_amp_MOS_cap_thick_poly_0[4|2]/VSRC fgcell_amp_MOS_cap_thick_poly_0[3|9]/VSRC
+ fgcell_amp_MOS_cap_thin_poly_0[0|4]/vtun fgcell_amp_MOS_cap_thin_poly_0[2|2]/vdd
+ fgcell_amp_MOS_cap_thin_poly_0[1|8]/tg5v0_0/vout fgcell_amp_MOS_cap_thick_poly_0[3|8]/vinj
+ fgcell_amp_MOS_cap_thin_poly_0[1|0]/row_en fgcell_amp_MOS_cap_thick_poly_0[2|8]/x1/vtun
+ fgcell_amp_MOS_cap_thick_poly_0[2|5]/row_en fgcell_amp_MOS_cap_thick_poly_0[2|6]/VSRC
+ fgcell_amp_MOS_cap_thick_poly_0[4|1]/vinj fgcell_amp_MOS_cap_thin_poly_0[1|3]/vdd
+ fgcell_amp_MOS_cap_thick_poly_0[0|5]/x1/vtun fgcell_amp_MOS_cap_thick_poly_0[3|8]/x1/vtun
+ fgcell_amp_MOS_cap_thick_poly_0[1|3]/VSRC fgcell_amp_MOS_cap_thin_poly_0[0|0]/vdd
+ fgcell_amp_MOS_cap_thick_poly_0[0|2]/vinj fgcell_amp_MOS_cap_thick_poly_0[0|5]/x2/vb
+ fgcell_amp_MOS_cap_thin_poly_0[4|8]/vdd fgcell_amp_MOS_cap_thin_poly_0[3|6]/x1/vinj
+ fgcell_amp_MOS_cap_thin_poly_0[0|6]/x2/vb fgcell_amp_MOS_cap_thick_poly_0[2|6]/row_en
+ fgcell_amp_MOS_cap_thin_poly_0[3|5]/vdd fgcell_amp_MOS_cap_thick_poly_0[0|0]/VSRC
+ fgcell_amp_MOS_cap_thick_poly_0[4|5]/vout fgcell_amp_MOS_cap_thick_poly_0[1|1]/x2/vb
+ fgcell_amp_MOS_cap_thin_poly_0[3|1]/tg5v0_0/vout fgcell_amp_MOS_cap_thin_poly_0[1|2]/x2/vb
+ fgcell_amp_MOS_cap_thin_poly_0[1|7]/vdd fgcell_amp_MOS_cap_thin_poly_0[4|4]/vsrc
+ fgcell_amp_MOS_cap_thin_poly_0[1|3]/vtun fgcell_amp_MOS_cap_thick_poly_0[3|3]/row_en_b
+ fgcell_amp_MOS_cap_thick_poly_0[4|6]/x2/vb fgcell_amp_MOS_cap_thick_poly_0[1|2]/x1/vtun
+ fgcell_amp_MOS_cap_thin_poly_0[4|7]/x2/vb fgcell_amp_MOS_cap_thick_poly_0[0|9]/x1/vtun
+ fgcell_amp_MOS_cap_thick_poly_0[2|4]/vout fgcell_amp_MOS_cap_thin_poly_0[1|0]/tg5v0_0/vout
+ fgcell_amp_MOS_cap_thin_poly_0[3|1]/vsrc fgcell_amp_MOS_cap_thin_poly_0[1|2]/row_en
+ fgcell_amp_MOS_cap_thick_poly_0[2|7]/row_en fgcell_amp_MOS_cap_thick_poly_0[1|2]/row_en_b
+ fgcell_amp_MOS_cap_thick_poly_0[3|5]/vinj fgcell_amp_MOS_cap_thin_poly_0[2|8]/vsrc
+ fgcell_amp_MOS_cap_thin_poly_0[3|1]/row_en fgcell_amp_MOS_cap_thick_poly_0[0|3]/vout
+ fgcell_amp_MOS_cap_thin_poly_0[4|3]/vtun fgcell_amp_MOS_cap_thin_poly_0[0|9]/x1/vctrl
+ fgcell_amp_MOS_cap_thin_poly_0[4|7]/tg5v0_0/vout fgcell_amp_MOS_cap_thin_poly_0[1|5]/vsrc
+ fgcell_amp_MOS_cap_thick_poly_0[4|9]/row_en_b fgcell_amp_MOS_cap_thin_poly_0[3|5]/row_en_b
+ fgcell_amp_MOS_cap_thin_poly_0[4|9]/x1/vinj fgcell_amp_MOS_cap_thin_poly_0[1|3]/row_en
+ fgcell_amp_MOS_cap_thin_poly_0[3|0]/vtun fgcell_amp_MOS_cap_thick_poly_0[2|8]/row_en
+ fgcell_amp_MOS_cap_thin_poly_0[2|6]/tg5v0_0/vout fgcell_amp_MOS_cap_thin_poly_0[2|7]/vtun
+ fgcell_amp_MOS_cap_thin_poly_0[0|2]/vsrc fgcell_amp_MOS_cap_thick_poly_0[0|6]/vinj
+ fgcell_amp_MOS_cap_thin_poly_0[3|5]/row_en fgcell_amp_MOS_cap_thick_poly_0[2|8]/row_en_b
+ fgcell_amp_MOS_cap_thin_poly_0[1|4]/row_en_b fgcell_amp_MOS_cap_thick_poly_0[1|9]/vout
+ fgcell_amp_MOS_cap_thin_poly_0[1|9]/x1/vctrl fgcell_amp_MOS_cap_thin_poly_0[0|5]/tg5v0_0/vout
+ fgcell_amp_MOS_cap_thick_poly_0[2|8]/x2/vb fgcell_amp_MOS_cap_thick_poly_0[4|9]/VSRC
+ fgcell_amp_MOS_cap_thin_poly_0[2|9]/x2/vb fgcell_amp_MOS_cap_thin_poly_0[1|4]/vtun
+ fgcell_amp_MOS_cap_thick_poly_0[0|7]/row_en_b fgcell_amp_MOS_cap_thick_poly_0[0|8]/x1/vctrl
+ fgcell_amp_MOS_cap_thin_poly_0[0|5]/x1/vctrl fgcell_amp_MOS_cap_thin_poly_0[0|0]/x2/vb
+ fgcell_amp_MOS_cap_thin_poly_0[1|4]/row_en fgcell_amp_MOS_cap_thin_poly_0[4|0]/x1/vinj
+ fgcell_amp_MOS_cap_thick_poly_0[3|5]/VSRC fgcell_amp_MOS_cap_thick_poly_0[2|9]/row_en
+ fgcell_amp_MOS_cap_thin_poly_0[3|7]/x1/vinj fgcell_amp_MOS_cap_thick_poly_0[3|4]/x2/vb
+ fgcell_amp_MOS_cap_thin_poly_0[0|1]/vtun fgcell_amp_MOS_cap_thin_poly_0[3|5]/x2/vb
+ fgcell_amp_MOS_cap_thin_poly_0[3|9]/row_en fgcell_amp_MOS_cap_thin_poly_0[2|9]/x1/vctrl
+ fgcell_amp_MOS_cap_thin_poly_0[2|4]/x1/vinj fgcell_amp_MOS_cap_thick_poly_0[2|3]/VSRC
+ fgcell_amp_MOS_cap_thick_poly_0[4|1]/row_en_b fgcell_amp_MOS_cap_thick_poly_0[4|0]/x2/vb
+ fgcell_amp_MOS_cap_thin_poly_0[4|1]/x2/vb fgcell_amp_MOS_cap_thick_poly_0[1|8]/x1/vctrl
+ fgcell_amp_MOS_cap_thin_poly_0[1|5]/x1/vctrl fgcell_amp_MOS_cap_thin_poly_0[4|0]/row_en
+ fgcell_amp_MOS_cap_thick_poly_0[3|2]/vout fgcell_amp_MOS_cap_thin_poly_0[0|8]/row_en
+ fgcell_amp_MOS_cap_thin_poly_0[1|5]/row_en fgcell_amp_MOS_cap_thick_poly_0[4|4]/vinj
+ fgcell_amp_MOS_cap_thin_poly_0[0|9]/row_en_b fgcell_amp_MOS_cap_thick_poly_0[0|4]/x1/vctrl
+ fgcell_amp_MOS_cap_thin_poly_0[0|1]/x1/vctrl fgcell_amp_MOS_cap_thin_poly_0[0|1]/x1/vinj
+ fgcell_amp_MOS_cap_thick_poly_0[1|0]/VSRC fgcell_amp_MOS_cap_thin_poly_0[1|1]/x1/vinj
+ fgcell_amp_MOS_cap_thick_poly_0[3|5]/x1/vtun fgcell_amp_MOS_cap_thick_poly_0[2|0]/row_en_b
+ fgcell_amp_MOS_cap_thick_poly_0[0|7]/VSRC fgcell_amp_MOS_cap_thin_poly_0[0|8]/x1/vinj
+ fgcell_amp_MOS_cap_thick_poly_0[1|1]/vout fgcell_amp_MOS_cap_thin_poly_0[3|9]/x1/vctrl
+ fgcell_amp_MOS_cap_thick_poly_0[1|4]/vdd fgcell_amp_MOS_cap_thick_poly_0[3|6]/VSRC
+ fgcell_amp_MOS_cap_thick_poly_0[2|2]/x1/vtun fgcell_amp_MOS_cap_thick_poly_0[2|8]/x1/vctrl
+ fgcell_amp_MOS_cap_thick_poly_0[1|9]/x1/vtun fgcell_amp_MOS_cap_thin_poly_0[2|5]/x1/vctrl
+ fgcell_amp_MOS_cap_thin_poly_0[4|3]/row_en_b fgcell_amp_MOS_cap_thin_poly_0[1|6]/row_en
+ fgcell_amp_MOS_cap_thick_poly_0[1|4]/x1/vctrl fgcell_amp_MOS_cap_thin_poly_0[4|1]/vsrc
+ fgcell_amp_MOS_cap_thin_poly_0[1|1]/x1/vctrl fgcell_amp_MOS_cap_thick_poly_0[1|6]/x2/vb
+ fgcell_amp_MOS_cap_thick_poly_0[4|8]/vout fgcell_amp_MOS_cap_thick_poly_0[4|3]/vdd
+ fgcell_amp_MOS_cap_thin_poly_0[3|8]/vsrc fgcell_amp_MOS_cap_thin_poly_0[1|7]/x2/vb
+ fgcell_amp_MOS_cap_thin_poly_0[3|4]/tg5v0_0/vout fgcell_amp_MOS_cap_thick_poly_0[2|1]/vdd
+ fgcell_amp_MOS_cap_thin_poly_0[1|6]/vtun fgcell_amp_MOS_cap_thick_poly_0[0|0]/x1/vctrl
+ fgcell_amp_MOS_cap_thick_poly_0[0|6]/x1/vtun fgcell_amp_MOS_cap_thick_poly_0[2|1]/x1/vtun
+ fgcell_amp_MOS_cap_thick_poly_0[3|6]/row_en_b fgcell_amp_MOS_cap_thin_poly_0[2|2]/row_en_b
+ fgcell_amp_MOS_cap_thin_poly_0[4|9]/x1/vctrl fgcell_amp_MOS_cap_thick_poly_0[4|5]/vinj
+ fgcell_amp_MOS_cap_thick_poly_0[2|7]/vout fgcell_amp_MOS_cap_thick_poly_0[3|2]/vinj
+ fgcell_amp_MOS_cap_thin_poly_0[1|3]/tg5v0_0/vout fgcell_amp_MOS_cap_thick_poly_0[0|0]/row_en
+ fgcell_amp_MOS_cap_thick_poly_0[3|4]/vdd fgcell_amp_MOS_cap_thick_poly_0[2|2]/x2/vb
+ fgcell_amp_MOS_cap_thin_poly_0[2|5]/vsrc fgcell_amp_MOS_cap_thick_poly_0[2|9]/vinj
+ fgcell_amp_MOS_cap_thin_poly_0[2|3]/x2/vb fgcell_amp_MOS_cap_thick_poly_0[3|8]/x1/vctrl
+ fgcell_amp_MOS_cap_thin_poly_0[3|5]/x1/vctrl fgcell_amp_MOS_cap_thick_poly_0[1|5]/row_en_b
+ fgcell_amp_MOS_cap_thin_poly_0[1|7]/row_en fgcell_amp_MOS_cap_thin_poly_0[0|1]/row_en_b
+ fgcell_amp_MOS_cap_thick_poly_0[2|4]/x1/vctrl fgcell_amp_MOS_cap_thick_poly_0[2|4]/row_en_b
+ fgcell_amp_MOS_cap_thin_poly_0[4|0]/vtun fgcell_amp_MOS_cap_thin_poly_0[2|1]/x1/vctrl
+ fgcell_amp_MOS_cap_thin_poly_0[3|0]/x1/vinj fgcell_amp_MOS_cap_thick_poly_0[0|6]/vout
+ fgcell_amp_MOS_cap_thin_poly_0[1|0]/row_en_b fgcell_amp_MOS_cap_thin_poly_0[3|7]/vtun
+ fgcell_amp_MOS_cap_thin_poly_0[1|2]/vsrc fgcell_amp_MOS_cap_thin_poly_0[1|4]/x1/vinj
+ fgcell_amp_MOS_cap_thick_poly_0[1|6]/vinj fgcell_amp_MOS_cap_thick_poly_0[1|0]/x1/vctrl
+ fgcell_amp_MOS_cap_thin_poly_0[0|9]/vsrc fgcell_amp_MOS_cap_thick_poly_0[0|3]/vdd
+ fgcell_amp_MOS_cap_thick_poly_0[0|3]/row_en_b fgcell_amp_MOS_cap_thin_poly_0[3|8]/row_en_b
+ fgcell_amp_MOS_cap_thick_poly_0[0|1]/row_en fgcell_amp_MOS_cap_thin_poly_0[2|4]/vtun
+ fgcell_amp_MOS_cap_thick_poly_0[3|8]/vdd fgcell_amp_MOS_cap_thick_poly_0[4|8]/x1/vctrl
+ fgcell_amp_MOS_cap_thick_poly_0[0|3]/vinj fgcell_amp_MOS_cap_thin_poly_0[4|7]/row_en_b
+ fgcell_amp_MOS_cap_thin_poly_0[4|5]/x1/vctrl fgcell_amp_MOS_cap_thin_poly_0[4|3]/row_en
+ fgcell_amp_MOS_cap_thick_poly_0[1|6]/vdd fgcell_amp_MOS_cap_thin_poly_0[0|7]/vdd
+ fgcell_amp_MOS_cap_thin_poly_0[1|7]/vtun fgcell_amp_MOS_cap_thin_poly_0[2|9]/tg5v0_0/vout
+ fgcell_amp_MOS_cap_thick_poly_0[3|4]/x1/vctrl fgcell_amp_MOS_cap_thin_poly_0[3|1]/x1/vctrl
+ fgcell_amp_MOS_cap_thick_poly_0[4|0]/vout fgcell_amp_MOS_cap_thick_poly_0[2|8]/vdd
+ fgcell_amp_MOS_cap_thin_poly_0[1|7]/row_en_b fgcell_amp_MOS_cap_thin_poly_0[4|7]/x1/vinj